version 3
run General-0-20230706-20:17:46-19848
attr configname General
attr datetime 20230706-20:17:46
attr datetimef 20230706-201746
attr experiment General
attr inifile omnetpp.ini
attr iterationvars ""
attr iterationvarsd ""
attr iterationvarsf ""
attr measurement ""
attr network SimpleEthernetNet
attr processid 19848
attr repetition 0
attr replication #0
attr resultdir results
attr runnumber 0
attr seedset 0
config network SimpleEthernetNet
config **.LD*.AppCount 1
config **.ME.AppCount 6
config **.US*.AppCount 1
config **.CU.AppCount 8
config **.CM1.AppCount 1
config **.TLM.AppCount 2
config **.RC.AppCount 1
config **.HU.AppCount 4
config **.RS*.AppCount 1
config **.S*.AppCount 1
config **.MasterNode.AppCount 0
config **.MasterNode.isPollingMaster true
config **.MasterNode.**.trxTimer 11.7us
config **.LD*.app[*].destination "\"SimpleEthernetNet.CU.eth\""
config **.ME.app[0].destination "\"SimpleEthernetNet.S1.eth\""
config **.ME.app[1].destination "\"SimpleEthernetNet.S2.eth\""
config **.ME.app[2].destination "\"SimpleEthernetNet.S3.eth\""
config **.ME.app[3].destination "\"SimpleEthernetNet.S4.eth\""
config **.ME.app[4].destination "\"SimpleEthernetNet.RS1.eth\""
config **.ME.app[5].destination "\"SimpleEthernetNet.RS2.eth\""
config **.US*.app[*].destination "\"SimpleEthernetNet.CU.eth\""
config **.CU.app[0].destination "\"SimpleEthernetNet.HU.eth\""
config **.CM1.app[*].destination "\"SimpleEthernetNet.HU.eth\""
config **.TLM.app[0].destination "\"SimpleEthernetNet.HU.eth\""
config **.TLM.app[1].destination "\"SimpleEthernetNet.CU.eth\""
config **.RC.app[0].destination "\"SimpleEthernetNet.HU.eth\""
config **.LD*.app[*].period 1.4ms
config **.ME.app[0].period 250us
config **.ME.app[1].period 250us
config **.ME.app[2].period 250us
config **.ME.app[3].period 250us
config **.ME.app[4].period 33.33ms
config **.ME.app[5].period 33.33ms
config **.US*.app[*].period 100ms
config **.CU.app[0].period 10ms
config **.CM1.app[*].period 16.66ms
config **.TLM.app[*].period 625us
config **.RC.app[0].period 33.33ms
config **.LD*.app[*].payloadLength 1300B
config **.ME.app[0].payloadLength 80B
config **.ME.app[1].payloadLength 80B
config **.ME.app[2].payloadLength 80B
config **.ME.app[3].payloadLength 80B
config **.ME.app[4].payloadLength 1500B
config **.ME.app[5].payloadLength 1500B
config **.US*.app[*].payloadLength 188B
config **.CU.app[0].payloadLength 1500B
config **.CM1.app[0].payloadLength 1500B
config **.TLM.app[*].payloadLength 600B
config **.RC.app[0].payloadLength 1500B
config **.LD*.app[*].burstSize 1
config **.ME.app[0].burstSize 1
config **.ME.app[1].burstSize 1
config **.ME.app[2].burstSize 1
config **.ME.app[3].burstSize 1
config **.ME.app[4].burstSize 119
config **.ME.app[5].burstSize 119
config **.US*.app[*].burstSize 1
config **.CU.app[0].burstSize 7
config **.CM1.app[0].burstSize 119
config **.TLM.app[*].burstSize 1
config **.RC.app[0].burstSize 119
config **.LD1.app[*].flow "\"LD1-CU\""
config **.CU.app[1].flow "\"LD1-CU\""
config **.LD2.app[*].flow "\"LD2-CU\""
config **.CU.app[2].flow "\"LD2-CU\""
config **.ME.app[0].flow "\"ME-S1\""
config **.S1.app[*].flow "\"ME-S1\""
config **.ME.app[1].flow "\"ME-S2\""
config **.S2.app[*].flow "\"ME-S2\""
config **.ME.app[2].flow "\"ME-S3\""
config **.S3.app[*].flow "\"ME-S3\""
config **.ME.app[3].flow "\"ME-S4\""
config **.S4.app[*].flow "\"ME-S4\""
config **.ME.app[4].flow "\"ME-RS1\""
config **.RS1.app[*].flow "\"ME-RS1\""
config **.ME.app[5].flow "\"ME-RS2\""
config **.RS2.app[*].flow "\"ME-RS2\""
config **.US1.app[*].flow "\"US1-CU\""
config **.CU.app[3].flow "\"US1-CU\""
config **.US2.app[*].flow "\"US2-CU\""
config **.CU.app[4].flow "\"US2-CU\""
config **.US3.app[*].flow "\"US3-CU\""
config **.CU.app[5].flow "\"US3-CU\""
config **.US4.app[*].flow "\"US4-CU\""
config **.CU.app[6].flow "\"US4-CU\""
config **.CU.app[0].flow "\"CU-HU\""
config **.HU.app[0].flow "\"CU-HU\""
config **.CM1.app[0].flow "\"CM1-HU\""
config **.HU.app[1].flow "\"CM1-HU\""
config **.TLM.app[0].flow "\"TLM-HU\""
config **.HU.app[2].flow "\"TLM-HU\""
config **.TLM.app[1].flow "\"TLM-CU\""
config **.CU.app[7].flow "\"TLM-CU\""
config **.RC.app[0].flow "\"RC-HU\""
config **.HU.app[3].flow "\"RC-HU\""
config **.LD1.pollingLayer[*].flow "\"LD1-CU\""
config **.CU.pollingLayer[1].flow "\"LD1-CU\""
config **.LD2.pollingLayer[*].flow "\"LD2-CU\""
config **.CU.pollingLayer[2].flow "\"LD2-CU\""
config **.ME.pollingLayer[0].flow "\"ME-S1\""
config **.S1.pollingLayer[*].flow "\"ME-S1\""
config **.ME.pollingLayer[1].flow "\"ME-S2\""
config **.S2.pollingLayer[*].flow "\"ME-S2\""
config **.ME.pollingLayer[2].flow "\"ME-S3\""
config **.S3.pollingLayer[*].flow "\"ME-S3\""
config **.ME.pollingLayer[3].flow "\"ME-S4\""
config **.S4.pollingLayer[*].flow "\"ME-S4\""
config **.ME.pollingLayer[4].flow "\"ME-RS1\""
config **.RS1.pollingLayer[*].flow "\"ME-RS1\""
config **.ME.pollingLayer[5].flow "\"ME-RS2\""
config **.RS2.pollingLayer[*].flow "\"ME-RS2\""
config **.US1.pollingLayer[*].flow "\"US1-CU\""
config **.CU.pollingLayer[3].flow "\"US1-CU\""
config **.US2.pollingLayer[*].flow "\"US2-CU\""
config **.CU.pollingLayer[4].flow "\"US2-CU\""
config **.US3.pollingLayer[*].flow "\"US3-CU\""
config **.CU.pollingLayer[5].flow "\"US3-CU\""
config **.US4.pollingLayer[*].flow "\"US4-CU\""
config **.CU.pollingLayer[6].flow "\"US4-CU\""
config **.CU.pollingLayer[0].flow "\"CU-HU\""
config **.HU.pollingLayer[0].flow "\"CU-HU\""
config **.CM1.pollingLayer[0].flow "\"CM1-HU\""
config **.HU.pollingLayer[1].flow "\"CM1-HU\""
config **.TLM.pollingLayer[0].flow "\"TLM-HU\""
config **.HU.pollingLayer[2].flow "\"TLM-HU\""
config **.TLM.pollingLayer[1].flow "\"TLM-CU\""
config **.CU.pollingLayer[7].flow "\"TLM-CU\""
config **.RC.pollingLayer[0].flow "\"RC-HU\""
config **.HU.pollingLayer[3].flow "\"RC-HU\""
config **.LD*.app[*].startTime uniform(100us,100us)
config **.ME.app[*].startTime uniform(100us,100us)
config **.US*.app[*].startTime uniform(100us,100us)
config **.CU.app[0].startTime uniform(100us,100us)
config **.CM1.app[0].startTime uniform(100us,100us)
config **.TLM.app[*].startTime uniform(100us,100us)
config **.RC.app[0].startTime uniform(100us,100us)
config **.controllerAddress "\"SimpleEthernetNet.MasterNode.eth\""
config **.pollingMaster.flowTable "FlowTableParameters { flows: [ \t{flow: \"LD1-CU\", addr: \"SimpleEthernetNet.LD1.eth\", burst: 1, period: 0.0014, deadline: 0.0014},\t{flow: \"LD2-CU\", addr: \"SimpleEthernetNet.LD2.eth\", burst: 1, period: 0.0014, deadline: 0.0014},\t{flow: \"ME-S1\", addr: \"SimpleEthernetNet.ME.eth\", burst: 1, period: 0.00025, deadline: 0.00025},\t{flow: \"ME-S2\", addr: \"SimpleEthernetNet.ME.eth\", burst: 1, period: 0.00025, deadline: 0.00025},\t{flow: \"ME-S3\", addr: \"SimpleEthernetNet.ME.eth\", burst: 1, period: 0.00025, deadline: 0.00025},\t{flow: \"ME-S4\", addr: \"SimpleEthernetNet.ME.eth\", burst: 1, period: 0.00025, deadline: 0.00025},\t{flow: \"US1-CU\", addr: \"SimpleEthernetNet.US1.eth\", burst: 1, period: 0.1, deadline: 0.1},\t{flow: \"US2-CU\", addr: \"SimpleEthernetNet.US2.eth\", burst: 1, period: 0.1, deadline: 0.1},\t{flow: \"US3-CU\", addr: \"SimpleEthernetNet.US3.eth\", burst: 1, period: 0.1, deadline: 0.1},\t{flow: \"US4-CU\", addr: \"SimpleEthernetNet.US4.eth\", burst: 1, period: 0.1, deadline: 0.1},\t{flow: \"CU-HU\", addr: \"SimpleEthernetNet.CU.eth\", burst: 7, period: 0.01, deadline: 0.002},\t{flow: \"CM1-HU\", addr: \"SimpleEthernetNet.CM1.eth\", burst: 40, period: 0.00555, deadline: 0.01666},\t{flow: \"ME-RS1\", addr: \"SimpleEthernetNet.ME.eth\", burst: 30, period: 0.00833, deadline: 0.03333},\t{flow: \"ME-RS2\", addr: \"SimpleEthernetNet.ME.eth\", burst: 30, period: 0.00833, deadline: 0.03333},\t{flow: \"TLM-HU\", addr: \"SimpleEthernetNet.TLM.eth\", burst: 1, period: 0.000625, deadline: 0.000625},\t{flow: \"TLM-CU\", addr: \"SimpleEthernetNet.TLM.eth\", burst: 1, period: 0.000625, deadline: 0.000625},    {flow: \"RC-HU\", addr: \"SimpleEthernetNet.RC.eth\", burst: 40, period: 0.01111, deadline: 0.03333},] }"
config **.SW1.relay.staticEntries "StaticRelayEntries { entries: [ \t\t{addr: \"SimpleEthernetNet.S1.eth\", port: 0}, \t\t{addr: \"SimpleEthernetNet.CU.eth\", port: 1}, \t\t{addr: \"SimpleEthernetNet.S2.eth\", port: 2}, \t\t{addr: \"SimpleEthernetNet.LD2.eth\", port: 3}, \t\t{addr: \"SimpleEthernetNet.CM1.eth\", port: 4}, \t\t{addr: \"SimpleEthernetNet.US2.eth\", port: 5}, \t\t{addr: \"SimpleEthernetNet.US1.eth\", port: 6}, \t\t{addr: \"SimpleEthernetNet.HU.eth\", port: 7}, \t\t{addr: \"SimpleEthernetNet.LD1.eth\", port: 8}, \t\t{addr: \"SimpleEthernetNet.SW2.eth\", port: 9}, \t\t{addr: \"SimpleEthernetNet.MasterNode.eth\", port: 10}, \t\t{addr: \"SimpleEthernetNet.RS1.eth\", port: 9}, \t\t{addr: \"SimpleEthernetNet.RS2.eth\", port: 9}, \t\t{addr: \"SimpleEthernetNet.S3.eth\", port: 9}, \t\t{addr: \"SimpleEthernetNet.S4.eth\", port: 9}, \t\t{addr: \"SimpleEthernetNet.ME.eth\", port: 9}, \t\t{addr: \"SimpleEthernetNet.RC.eth\", port: 9}, \t\t{addr: \"SimpleEthernetNet.TLM.eth\", port: 9}, \t\t{addr: \"SimpleEthernetNet.US4.eth\", port: 9}, \t\t{addr: \"SimpleEthernetNet.US3.eth\", port: 9}, \t\t{addr: \"SimpleEthernetNet.SW1.eth\", port: 9} ] }"
config **.SW2.relay.staticEntries "StaticRelayEntries { entries: [ \t\t{addr: \"SimpleEthernetNet.RS1.eth\", port: 0}, \t\t{addr: \"SimpleEthernetNet.RS2.eth\", port: 1}, \t\t{addr: \"SimpleEthernetNet.S3.eth\", port: 2}, \t\t{addr: \"SimpleEthernetNet.S4.eth\", port: 3}, \t\t{addr: \"SimpleEthernetNet.ME.eth\", port: 4}, \t\t{addr: \"SimpleEthernetNet.RC.eth\", port: 5}, \t\t{addr: \"SimpleEthernetNet.TLM.eth\", port: 6}, \t\t{addr: \"SimpleEthernetNet.US4.eth\", port: 7}, \t\t{addr: \"SimpleEthernetNet.US3.eth\", port: 8}, \t\t{addr: \"SimpleEthernetNet.SW1.eth\", port: 9}, \t\t{addr: \"SimpleEthernetNet.S1.eth\", port: 9}, \t\t{addr: \"SimpleEthernetNet.CU.eth\", port: 9}, \t\t{addr: \"SimpleEthernetNet.S2.eth\", port: 9}, \t\t{addr: \"SimpleEthernetNet.LD2.eth\", port: 9}, \t\t{addr: \"SimpleEthernetNet.CM1.eth\", port: 9}, \t\t{addr: \"SimpleEthernetNet.US2.eth\", port: 9}, \t\t{addr: \"SimpleEthernetNet.US1.eth\", port: 9}, \t\t{addr: \"SimpleEthernetNet.HU.eth\", port: 9}, \t\t{addr: \"SimpleEthernetNet.LD1.eth\", port: 9}, \t\t{addr: \"SimpleEthernetNet.SW2.eth\", port: 9}, \t\t{addr: \"SimpleEthernetNet.MasterNode.eth\", port: 9} ] }"
config **.payloadLength 1500B
config **.destination "\"\""
config **.period 1ms
config **.burstSize 1
config **.datarate 10Gbps

vector 0 SimpleEthernetNet.LD2.pollingLayer[0] PollingQueueSize:vector ETV
attr recordingmode vector
vector 1 SimpleEthernetNet.CM1.pollingLayer[0] PollingQueueSize:vector ETV
attr recordingmode vector
vector 2 SimpleEthernetNet.LD1.pollingLayer[0] PollingQueueSize:vector ETV
attr recordingmode vector
vector 3 SimpleEthernetNet.US2.pollingLayer[0] PollingQueueSize:vector ETV
attr recordingmode vector
vector 4 SimpleEthernetNet.US1.pollingLayer[0] PollingQueueSize:vector ETV
attr recordingmode vector
vector 5 SimpleEthernetNet.CU.pollingLayer[0] PollingQueueSize:vector ETV
attr recordingmode vector
vector 6 SimpleEthernetNet.RC.pollingLayer[0] PollingQueueSize:vector ETV
attr recordingmode vector
vector 7 SimpleEthernetNet.ME.pollingLayer[0] PollingQueueSize:vector ETV
attr recordingmode vector
vector 8 SimpleEthernetNet.ME.pollingLayer[1] PollingQueueSize:vector ETV
attr recordingmode vector
vector 9 SimpleEthernetNet.ME.pollingLayer[2] PollingQueueSize:vector ETV
attr recordingmode vector
vector 10 SimpleEthernetNet.ME.pollingLayer[3] PollingQueueSize:vector ETV
attr recordingmode vector
vector 11 SimpleEthernetNet.ME.pollingLayer[4] PollingQueueSize:vector ETV
attr recordingmode vector
vector 12 SimpleEthernetNet.ME.pollingLayer[5] PollingQueueSize:vector ETV
attr recordingmode vector
vector 13 SimpleEthernetNet.TLM.pollingLayer[0] PollingQueueSize:vector ETV
attr recordingmode vector
vector 14 SimpleEthernetNet.TLM.pollingLayer[1] PollingQueueSize:vector ETV
attr recordingmode vector
vector 15 SimpleEthernetNet.US4.pollingLayer[0] PollingQueueSize:vector ETV
attr recordingmode vector
vector 16 SimpleEthernetNet.US3.pollingLayer[0] PollingQueueSize:vector ETV
attr recordingmode vector
vector 17 SimpleEthernetNet.MasterNode.eth.phy QueueSize:vector ETV
attr recordingmode vector
vector 18 SimpleEthernetNet.SW1.port[9] QueueSize:vector ETV
attr recordingmode vector
vector 19 SimpleEthernetNet.SW2.port[4] QueueSize:vector ETV
attr recordingmode vector
vector 20 SimpleEthernetNet.ME.eth.phy QueueSize:vector ETV
attr recordingmode vector
vector 21 SimpleEthernetNet.SW2.port[9] QueueSize:vector ETV
attr recordingmode vector
vector 22 SimpleEthernetNet.SW1.port[10] QueueSize:vector ETV
attr recordingmode vector
vector 23 SimpleEthernetNet.MasterNode.pollingMaster TrxTime:vector ETV
attr recordingmode vector
vector 24 SimpleEthernetNet.SW1.port[0] QueueSize:vector ETV
attr recordingmode vector
vector 25 SimpleEthernetNet.S1.app[0] FLR:vector ETV
attr recordingmode vector
vector 26 SimpleEthernetNet.S1.app[0] E2eDelay:vector ETV
attr recordingmode vector
vector 27 SimpleEthernetNet.S1.app[0] Throughput:vector ETV
attr recordingmode vector
vector 28 SimpleEthernetNet.S1.app[0] BurstE2eDelay:vector ETV
attr recordingmode vector
vector 29 SimpleEthernetNet.SW1.port[2] QueueSize:vector ETV
attr recordingmode vector
vector 30 SimpleEthernetNet.S2.app[0] FLR:vector ETV
attr recordingmode vector
vector 31 SimpleEthernetNet.S2.app[0] E2eDelay:vector ETV
attr recordingmode vector
vector 32 SimpleEthernetNet.S2.app[0] Throughput:vector ETV
attr recordingmode vector
vector 33 SimpleEthernetNet.S2.app[0] BurstE2eDelay:vector ETV
attr recordingmode vector
vector 34 SimpleEthernetNet.SW2.port[2] QueueSize:vector ETV
attr recordingmode vector
vector 35 SimpleEthernetNet.S3.app[0] FLR:vector ETV
attr recordingmode vector
vector 36 SimpleEthernetNet.S3.app[0] E2eDelay:vector ETV
attr recordingmode vector
vector 37 SimpleEthernetNet.S3.app[0] Throughput:vector ETV
attr recordingmode vector
vector 38 SimpleEthernetNet.S3.app[0] BurstE2eDelay:vector ETV
attr recordingmode vector
vector 39 SimpleEthernetNet.SW2.port[3] QueueSize:vector ETV
attr recordingmode vector
vector 40 SimpleEthernetNet.S4.app[0] FLR:vector ETV
attr recordingmode vector
vector 41 SimpleEthernetNet.S4.app[0] E2eDelay:vector ETV
attr recordingmode vector
vector 42 SimpleEthernetNet.S4.app[0] Throughput:vector ETV
attr recordingmode vector
vector 43 SimpleEthernetNet.S4.app[0] BurstE2eDelay:vector ETV
attr recordingmode vector
vector 44 SimpleEthernetNet.SW2.port[6] QueueSize:vector ETV
attr recordingmode vector
vector 45 SimpleEthernetNet.TLM.eth.phy QueueSize:vector ETV
attr recordingmode vector
vector 46 SimpleEthernetNet.SW1.port[7] QueueSize:vector ETV
attr recordingmode vector
vector 47 SimpleEthernetNet.HU.app[2] FLR:vector ETV
attr recordingmode vector
vector 48 SimpleEthernetNet.HU.app[2] E2eDelay:vector ETV
attr recordingmode vector
vector 49 SimpleEthernetNet.HU.app[2] Throughput:vector ETV
attr recordingmode vector
vector 50 SimpleEthernetNet.HU.app[2] BurstE2eDelay:vector ETV
attr recordingmode vector
vector 51 SimpleEthernetNet.SW1.port[1] QueueSize:vector ETV
attr recordingmode vector
vector 52 SimpleEthernetNet.CU.app[7] FLR:vector ETV
attr recordingmode vector
vector 53 SimpleEthernetNet.CU.app[7] E2eDelay:vector ETV
attr recordingmode vector
vector 54 SimpleEthernetNet.CU.app[7] Throughput:vector ETV
attr recordingmode vector
vector 55 SimpleEthernetNet.CU.app[7] BurstE2eDelay:vector ETV
attr recordingmode vector
vector 56 SimpleEthernetNet.SW1.port[8] QueueSize:vector ETV
attr recordingmode vector
vector 57 SimpleEthernetNet.LD1.eth.phy QueueSize:vector ETV
attr recordingmode vector
vector 58 SimpleEthernetNet.SW1.port[3] QueueSize:vector ETV
attr recordingmode vector
vector 59 SimpleEthernetNet.LD2.eth.phy QueueSize:vector ETV
attr recordingmode vector
vector 60 SimpleEthernetNet.CU.app[1] FLR:vector ETV
attr recordingmode vector
vector 61 SimpleEthernetNet.CU.app[1] E2eDelay:vector ETV
attr recordingmode vector
vector 62 SimpleEthernetNet.CU.app[1] Throughput:vector ETV
attr recordingmode vector
vector 63 SimpleEthernetNet.CU.app[1] BurstE2eDelay:vector ETV
attr recordingmode vector
vector 64 SimpleEthernetNet.CU.app[2] FLR:vector ETV
attr recordingmode vector
vector 65 SimpleEthernetNet.CU.app[2] E2eDelay:vector ETV
attr recordingmode vector
vector 66 SimpleEthernetNet.CU.app[2] Throughput:vector ETV
attr recordingmode vector
vector 67 SimpleEthernetNet.CU.app[2] BurstE2eDelay:vector ETV
attr recordingmode vector
vector 68 SimpleEthernetNet.SW1.port[4] QueueSize:vector ETV
attr recordingmode vector
vector 69 SimpleEthernetNet.CM1.eth.phy QueueSize:vector ETV
attr recordingmode vector
vector 70 SimpleEthernetNet.HU.app[1] FLR:vector ETV
attr recordingmode vector
vector 71 SimpleEthernetNet.HU.app[1] E2eDelay:vector ETV
attr recordingmode vector
vector 72 SimpleEthernetNet.HU.app[1] Throughput:vector ETV
attr recordingmode vector
0	18	0.0001	1
0	2101	0.001403432	0
0	2173	0.0015	1
0	4005	0.002803432	0
0	4081	0.0029	1
0	5671	0.004203432	0
0	5985	0.0043	1
1	19	0.0001	1
1	20	0.0001	2
1	21	0.0001	3
1	22	0.0001	4
1	23	0.0001	5
1	24	0.0001	6
1	25	0.0001	7
1	26	0.0001	8
1	27	0.0001	9
1	28	0.0001	10
1	29	0.0001	11
1	30	0.0001	12
1	31	0.0001	13
1	32	0.0001	14
1	33	0.0001	15
1	34	0.0001	16
1	35	0.0001	17
1	36	0.0001	18
1	37	0.0001	19
1	38	0.0001	20
1	39	0.0001	21
1	40	0.0001	22
1	41	0.0001	23
1	42	0.0001	24
1	43	0.0001	25
1	44	0.0001	26
1	45	0.0001	27
1	46	0.0001	28
1	47	0.0001	29
1	48	0.0001	30
1	49	0.0001	31
1	50	0.0001	32
1	51	0.0001	33
1	52	0.0001	34
1	53	0.0001	35
1	54	0.0001	36
1	55	0.0001	37
1	56	0.0001	38
1	57	0.0001	39
1	58	0.0001	40
1	59	0.0001	41
1	60	0.0001	42
1	61	0.0001	43
1	62	0.0001	44
1	63	0.0001	45
1	64	0.0001	46
1	65	0.0001	47
1	66	0.0001	48
1	67	0.0001	49
1	68	0.0001	50
1	69	0.0001	51
1	70	0.0001	52
1	71	0.0001	53
1	72	0.0001	54
1	73	0.0001	55
1	74	0.0001	56
1	75	0.0001	57
1	76	0.0001	58
1	77	0.0001	59
1	78	0.0001	60
1	79	0.0001	61
1	80	0.0001	62
1	81	0.0001	63
1	82	0.0001	64
1	83	0.0001	65
1	84	0.0001	66
1	85	0.0001	67
1	86	0.0001	68
1	87	0.0001	69
1	88	0.0001	70
1	89	0.0001	71
1	90	0.0001	72
1	91	0.0001	73
1	92	0.0001	74
1	93	0.0001	75
1	94	0.0001	76
1	95	0.0001	77
1	96	0.0001	78
1	97	0.0001	79
1	98	0.0001	80
1	99	0.0001	81
1	100	0.0001	82
1	101	0.0001	83
1	102	0.0001	84
1	103	0.0001	85
1	104	0.0001	86
1	105	0.0001	87
1	106	0.0001	88
1	107	0.0001	89
1	108	0.0001	90
1	109	0.0001	91
1	110	0.0001	92
1	111	0.0001	93
1	112	0.0001	94
1	113	0.0001	95
1	114	0.0001	96
1	115	0.0001	97
1	116	0.0001	98
1	117	0.0001	99
1	118	0.0001	100
1	119	0.0001	101
1	120	0.0001	102
1	121	0.0001	103
1	122	0.0001	104
1	123	0.0001	105
1	124	0.0001	106
1	125	0.0001	107
1	126	0.0001	108
1	127	0.0001	109
1	128	0.0001	110
1	129	0.0001	111
1	130	0.0001	112
1	131	0.0001	113
1	132	0.0001	114
1	133	0.0001	115
1	134	0.0001	116
1	135	0.0001	117
1	136	0.0001	118
1	137	0.0001	119
1	7538	0.0055501152	118
1	7538	0.0055501152	117
1	7538	0.0055501152	116
1	7538	0.0055501152	115
1	7538	0.0055501152	114
1	7538	0.0055501152	113
1	7538	0.0055501152	112
1	7538	0.0055501152	111
1	7538	0.0055501152	110
1	7538	0.0055501152	109
1	7538	0.0055501152	108
1	7538	0.0055501152	107
1	7538	0.0055501152	106
1	7538	0.0055501152	105
1	7538	0.0055501152	104
1	7538	0.0055501152	103
1	7538	0.0055501152	102
1	7538	0.0055501152	101
1	7538	0.0055501152	100
1	7538	0.0055501152	99
1	7538	0.0055501152	98
1	7538	0.0055501152	97
1	7538	0.0055501152	96
1	7538	0.0055501152	95
1	7538	0.0055501152	94
1	7538	0.0055501152	93
1	7538	0.0055501152	92
1	7538	0.0055501152	91
1	7538	0.0055501152	90
1	7538	0.0055501152	89
1	7538	0.0055501152	88
1	7538	0.0055501152	87
1	7538	0.0055501152	86
1	7538	0.0055501152	85
1	7538	0.0055501152	84
1	7538	0.0055501152	83
1	7538	0.0055501152	82
1	7538	0.0055501152	81
1	7538	0.0055501152	80
1	7538	0.0055501152	79
2	138	0.0001	1
2	2065	0.0014001152	0
2	2174	0.0015	1
2	3969	0.0028001152	0
2	4082	0.0029	1
2	5635	0.0042001152	0
2	5986	0.0043	1
3	139	0.0001	1
4	140	0.0001	1
5	141	0.0001	1
5	142	0.0001	2
5	143	0.0001	3
5	144	0.0001	4
5	145	0.0001	5
5	146	0.0001	6
5	147	0.0001	7
6	148	0.0001	1
6	149	0.0001	2
6	150	0.0001	3
6	151	0.0001	4
6	152	0.0001	5
6	153	0.0001	6
6	154	0.0001	7
6	155	0.0001	8
6	156	0.0001	9
6	157	0.0001	10
6	158	0.0001	11
6	159	0.0001	12
6	160	0.0001	13
6	161	0.0001	14
6	162	0.0001	15
6	163	0.0001	16
6	164	0.0001	17
6	165	0.0001	18
6	166	0.0001	19
6	167	0.0001	20
6	168	0.0001	21
6	169	0.0001	22
6	170	0.0001	23
6	171	0.0001	24
6	172	0.0001	25
6	173	0.0001	26
6	174	0.0001	27
6	175	0.0001	28
6	176	0.0001	29
6	177	0.0001	30
6	178	0.0001	31
6	179	0.0001	32
6	180	0.0001	33
6	181	0.0001	34
6	182	0.0001	35
6	183	0.0001	36
6	184	0.0001	37
6	185	0.0001	38
6	186	0.0001	39
6	187	0.0001	40
6	188	0.0001	41
6	189	0.0001	42
6	190	0.0001	43
6	191	0.0001	44
6	192	0.0001	45
6	193	0.0001	46
6	194	0.0001	47
6	195	0.0001	48
6	196	0.0001	49
6	197	0.0001	50
6	198	0.0001	51
6	199	0.0001	52
6	200	0.0001	53
6	201	0.0001	54
6	202	0.0001	55
6	203	0.0001	56
6	204	0.0001	57
6	205	0.0001	58
6	206	0.0001	59
6	207	0.0001	60
6	208	0.0001	61
6	209	0.0001	62
6	210	0.0001	63
6	211	0.0001	64
6	212	0.0001	65
6	213	0.0001	66
6	214	0.0001	67
6	215	0.0001	68
6	216	0.0001	69
6	217	0.0001	70
6	218	0.0001	71
6	219	0.0001	72
6	220	0.0001	73
6	221	0.0001	74
6	222	0.0001	75
6	223	0.0001	76
6	224	0.0001	77
6	225	0.0001	78
6	226	0.0001	79
6	227	0.0001	80
6	228	0.0001	81
6	229	0.0001	82
6	230	0.0001	83
6	231	0.0001	84
6	232	0.0001	85
6	233	0.0001	86
6	234	0.0001	87
6	235	0.0001	88
6	236	0.0001	89
6	237	0.0001	90
6	238	0.0001	91
6	239	0.0001	92
6	240	0.0001	93
6	241	0.0001	94
6	242	0.0001	95
6	243	0.0001	96
6	244	0.0001	97
6	245	0.0001	98
6	246	0.0001	99
6	247	0.0001	100
6	248	0.0001	101
6	249	0.0001	102
6	250	0.0001	103
6	251	0.0001	104
6	252	0.0001	105
6	253	0.0001	106
6	254	0.0001	107
6	255	0.0001	108
6	256	0.0001	109
6	257	0.0001	110
6	258	0.0001	111
6	259	0.0001	112
6	260	0.0001	113
6	261	0.0001	114
6	262	0.0001	115
6	263	0.0001	116
6	264	0.0001	117
6	265	0.0001	118
6	266	0.0001	119
7	267	0.0001	1
7	534	0.0002501728	0
7	763	0.00035	1
7	788	0.0005001728	0
7	1017	0.0006	1
7	1176	0.0007501728	0
7	1405	0.00085	1
7	1430	0.0010001728	0
7	1659	0.0011	1
7	1733	0.0012523728	0
7	2047	0.00135	1
7	2192	0.0015001728	0
7	2421	0.0016	1
7	2446	0.0017501728	0
7	2675	0.00185	1
7	2834	0.0020001728	0
7	3063	0.0021	1
7	3088	0.0022501728	0
7	3317	0.00235	1
7	3391	0.0025023728	0
7	3705	0.0026	1
7	3730	0.0027501728	0
7	4075	0.00285	1
7	4104	0.0030001728	0
7	4333	0.0031	1
7	4492	0.0032501728	0
7	4721	0.00335	1
7	4746	0.0035001728	0
7	4975	0.0036	1
7	5049	0.0037523728	0
7	5363	0.00385	1
7	5388	0.0040001728	0
7	5617	0.0041	1
7	5758	0.0042501728	0
7	5991	0.00435	1
7	6150	0.0045001728	0
7	6379	0.0046	1
7	6404	0.0047501728	0
7	6633	0.00485	1
7	6707	0.0050023728	0
7	7021	0.0051	1
7	7046	0.0052501728	0
7	7275	0.00535	1
7	7300	0.0055001728	0
7	8890	0.0056	1
8	268	0.0001	1
8	593	0.0002507088	0
8	764	0.00035	1
8	847	0.0005007088	0
8	1018	0.0006	1
8	1235	0.0007507088	0
8	1406	0.00085	1
8	1489	0.0010007088	0
8	1660	0.0011	1
8	1805	0.0012529088	0
8	2048	0.00135	1
8	2251	0.0015007088	0
8	2422	0.0016	1
8	2505	0.0017507088	0
8	2676	0.00185	1
8	2893	0.0020007088	0
8	3064	0.0021	1
8	3147	0.0022507088	0
8	3318	0.00235	1
8	3463	0.0025029088	0
8	3706	0.0026	1
8	3789	0.0027507088	0
8	4076	0.00285	1
8	4163	0.0030007088	0
8	4334	0.0031	1
8	4551	0.0032507088	0
8	4722	0.00335	1
8	4805	0.0035007088	0
8	4976	0.0036	1
8	5121	0.0037529088	0
8	5364	0.00385	1
8	5447	0.0040007088	0
8	5618	0.0041	1
8	5817	0.0042507088	0
8	5992	0.00435	1
8	6209	0.0045007088	0
8	6380	0.0046	1
8	6463	0.0047507088	0
8	6634	0.00485	1
8	6779	0.0050029088	0
8	7022	0.0051	1
8	7105	0.0052507088	0
8	7276	0.00535	1
8	7359	0.0055007088	0
8	8891	0.0056	1
9	269	0.0001	1
9	652	0.0002512448	0
9	765	0.00035	1
9	906	0.0005012448	0
9	1019	0.0006	1
9	1294	0.0007512448	0
9	1407	0.00085	1
9	1548	0.0010012448	0
9	1661	0.0011	1
9	1864	0.0012534448	0
9	2049	0.00135	1
9	2310	0.0015012448	0
9	2423	0.0016	1
9	2564	0.0017512448	0
9	2677	0.00185	1
9	2952	0.0020012448	0
9	3065	0.0021	1
9	3206	0.0022512448	0
9	3319	0.00235	1
9	3522	0.0025034448	0
9	3707	0.0026	1
9	3848	0.0027512448	0
9	4077	0.00285	1
9	4222	0.0030012448	0
9	4335	0.0031	1
9	4610	0.0032512448	0
9	4723	0.00335	1
9	4864	0.0035012448	0
9	4977	0.0036	1
9	5180	0.0037534448	0
9	5365	0.00385	1
9	5506	0.0040012448	0
9	5619	0.0041	1
9	5876	0.0042512448	0
9	5993	0.00435	1
9	6268	0.0045012448	0
9	6381	0.0046	1
9	6522	0.0047512448	0
9	6635	0.00485	1
9	6838	0.0050034448	0
9	7023	0.0051	1
9	7164	0.0052512448	0
9	7277	0.00535	1
9	7418	0.0055012448	0
9	8892	0.0056	1
10	270	0.0001	1
10	716	0.000251808	0
10	766	0.00035	1
10	970	0.000501808	0
10	1020	0.0006	1
10	1358	0.000751808	0
10	1408	0.00085	1
10	1612	0.001001808	0
10	1662	0.0011	1
10	1928	0.001254008	0
10	2050	0.00135	1
10	2374	0.001501808	0
10	2424	0.0016	1
10	2628	0.001751808	0
10	2678	0.00185	1
10	3016	0.002001808	0
10	3066	0.0021	1
10	3270	0.002251808	0
10	3320	0.00235	1
10	3586	0.002504008	0
10	3708	0.0026	1
10	3912	0.002751808	0
10	4078	0.00285	1
10	4286	0.003001808	0
10	4336	0.0031	1
10	4674	0.003251808	0
10	4724	0.00335	1
10	4928	0.003501808	0
10	4978	0.0036	1
10	5244	0.003754008	0
10	5366	0.00385	1
10	5570	0.004001808	0
10	5620	0.0041	1
10	5940	0.004251808	0
10	5994	0.00435	1
10	6332	0.004501808	0
10	6382	0.0046	1
10	6586	0.004751808	0
10	6636	0.00485	1
10	6902	0.005004008	0
10	7024	0.0051	1
10	7228	0.005251808	0
10	7278	0.00535	1
10	7482	0.005501808	0
10	8893	0.0056	1
11	271	0.0001	1
11	272	0.0001	2
11	273	0.0001	3
11	274	0.0001	4
11	275	0.0001	5
11	276	0.0001	6
11	277	0.0001	7
11	278	0.0001	8
11	279	0.0001	9
11	280	0.0001	10
11	281	0.0001	11
11	282	0.0001	12
11	283	0.0001	13
11	284	0.0001	14
11	285	0.0001	15
11	286	0.0001	16
11	287	0.0001	17
11	288	0.0001	18
11	289	0.0001	19
11	290	0.0001	20
11	291	0.0001	21
11	292	0.0001	22
11	293	0.0001	23
11	294	0.0001	24
11	295	0.0001	25
11	296	0.0001	26
11	297	0.0001	27
11	298	0.0001	28
11	299	0.0001	29
11	300	0.0001	30
11	301	0.0001	31
11	302	0.0001	32
11	303	0.0001	33
11	304	0.0001	34
11	305	0.0001	35
11	306	0.0001	36
11	307	0.0001	37
11	308	0.0001	38
11	309	0.0001	39
11	310	0.0001	40
11	311	0.0001	41
11	312	0.0001	42
11	313	0.0001	43
11	314	0.0001	44
11	315	0.0001	45
11	316	0.0001	46
11	317	0.0001	47
11	318	0.0001	48
11	319	0.0001	49
11	320	0.0001	50
11	321	0.0001	51
11	322	0.0001	52
11	323	0.0001	53
11	324	0.0001	54
11	325	0.0001	55
11	326	0.0001	56
11	327	0.0001	57
11	328	0.0001	58
11	329	0.0001	59
11	330	0.0001	60
11	331	0.0001	61
11	332	0.0001	62
11	333	0.0001	63
11	334	0.0001	64
11	335	0.0001	65
11	336	0.0001	66
11	337	0.0001	67
11	338	0.0001	68
11	339	0.0001	69
11	340	0.0001	70
11	341	0.0001	71
11	342	0.0001	72
11	343	0.0001	73
11	344	0.0001	74
11	345	0.0001	75
11	346	0.0001	76
11	347	0.0001	77
11	348	0.0001	78
11	349	0.0001	79
11	350	0.0001	80
11	351	0.0001	81
11	352	0.0001	82
11	353	0.0001	83
11	354	0.0001	84
11	355	0.0001	85
11	356	0.0001	86
11	357	0.0001	87
11	358	0.0001	88
11	359	0.0001	89
11	360	0.0001	90
11	361	0.0001	91
11	362	0.0001	92
11	363	0.0001	93
11	364	0.0001	94
11	365	0.0001	95
11	366	0.0001	96
11	367	0.0001	97
11	368	0.0001	98
11	369	0.0001	99
11	370	0.0001	100
11	371	0.0001	101
11	372	0.0001	102
11	373	0.0001	103
11	374	0.0001	104
11	375	0.0001	105
11	376	0.0001	106
11	377	0.0001	107
11	378	0.0001	108
11	379	0.0001	109
11	380	0.0001	110
11	381	0.0001	111
11	382	0.0001	112
11	383	0.0001	113
11	384	0.0001	114
11	385	0.0001	115
11	386	0.0001	116
11	387	0.0001	117
11	388	0.0001	118
11	389	0.0001	119
12	390	0.0001	1
12	391	0.0001	2
12	392	0.0001	3
12	393	0.0001	4
12	394	0.0001	5
12	395	0.0001	6
12	396	0.0001	7
12	397	0.0001	8
12	398	0.0001	9
12	399	0.0001	10
12	400	0.0001	11
12	401	0.0001	12
12	402	0.0001	13
12	403	0.0001	14
12	404	0.0001	15
12	405	0.0001	16
12	406	0.0001	17
12	407	0.0001	18
12	408	0.0001	19
12	409	0.0001	20
12	410	0.0001	21
12	411	0.0001	22
12	412	0.0001	23
12	413	0.0001	24
12	414	0.0001	25
12	415	0.0001	26
12	416	0.0001	27
12	417	0.0001	28
12	418	0.0001	29
12	419	0.0001	30
12	420	0.0001	31
12	421	0.0001	32
12	422	0.0001	33
12	423	0.0001	34
12	424	0.0001	35
12	425	0.0001	36
12	426	0.0001	37
12	427	0.0001	38
12	428	0.0001	39
12	429	0.0001	40
12	430	0.0001	41
12	431	0.0001	42
12	432	0.0001	43
12	433	0.0001	44
12	434	0.0001	45
12	435	0.0001	46
12	436	0.0001	47
12	437	0.0001	48
12	438	0.0001	49
12	439	0.0001	50
12	440	0.0001	51
12	441	0.0001	52
12	442	0.0001	53
12	443	0.0001	54
12	444	0.0001	55
12	445	0.0001	56
12	446	0.0001	57
12	447	0.0001	58
12	448	0.0001	59
12	449	0.0001	60
12	450	0.0001	61
12	451	0.0001	62
12	452	0.0001	63
12	453	0.0001	64
12	454	0.0001	65
12	455	0.0001	66
12	456	0.0001	67
12	457	0.0001	68
12	458	0.0001	69
12	459	0.0001	70
12	460	0.0001	71
12	461	0.0001	72
12	462	0.0001	73
12	463	0.0001	74
12	464	0.0001	75
12	465	0.0001	76
12	466	0.0001	77
12	467	0.0001	78
12	468	0.0001	79
12	469	0.0001	80
12	470	0.0001	81
12	471	0.0001	82
12	472	0.0001	83
12	473	0.0001	84
12	474	0.0001	85
12	475	0.0001	86
12	476	0.0001	87
12	477	0.0001	88
12	478	0.0001	89
12	479	0.0001	90
12	480	0.0001	91
12	481	0.0001	92
12	482	0.0001	93
12	483	0.0001	94
12	484	0.0001	95
12	485	0.0001	96
12	486	0.0001	97
12	487	0.0001	98
12	488	0.0001	99
12	489	0.0001	100
12	490	0.0001	101
12	491	0.0001	102
12	492	0.0001	103
12	493	0.0001	104
12	494	0.0001	105
12	495	0.0001	106
12	496	0.0001	107
12	497	0.0001	108
12	498	0.0001	109
12	499	0.0001	110
12	500	0.0001	111
12	501	0.0001	112
12	502	0.0001	113
12	503	0.0001	114
12	504	0.0001	115
12	505	0.0001	116
12	506	0.0001	117
12	507	0.0001	118
12	508	0.0001	119
13	509	0.0001	1
13	1040	0.0006251728	0
13	1153	0.000725	1
13	1686	0.0012501728	0
13	2045	0.00135	1
13	2698	0.0018751728	0
13	2811	0.001975	1
13	3344	0.0025001728	0
13	3703	0.0026	1
13	4356	0.0031251728	0
13	4469	0.003225	1
13	5002	0.0037501728	0
13	5361	0.00385	1
13	6014	0.0043751728	0
13	6127	0.004475	1
13	6660	0.0050001728	0
13	7019	0.0051	1
14	510	0.0001	1
14	1088	0.0006273728	0
14	1154	0.000725	1
14	1989	0.0012545712	0
14	2046	0.00135	1
14	2746	0.0018773728	0
14	2812	0.001975	1
14	3647	0.0025045712	0
14	3704	0.0026	1
14	4404	0.0031273728	0
14	4470	0.003225	1
14	5305	0.0037545712	0
14	5362	0.00385	1
14	6062	0.0043773728	0
14	6128	0.004475	1
14	6963	0.0050045712	0
14	7020	0.0051	1
15	511	0.0001	1
16	512	0.0001	1
17	519	0.00025	1
17	519	0.00025	0
17	563	0.0002504416	1
17	563	0.0002504416	0
17	564	0.0002504416	1
17	570	0.000250536	0
17	621	0.0002509776	1
17	621	0.0002509776	0
17	622	0.0002509776	1
17	628	0.000251072	0
17	679	0.0002515136	1
17	679	0.0002515136	0
17	680	0.0002515136	1
17	686	0.000251608	0
17	740	0.0002520768	1
17	740	0.0002520768	0
17	773	0.0005	1
17	773	0.0005	0
17	817	0.0005004416	1
17	817	0.0005004416	0
17	818	0.0005004416	1
17	824	0.000500536	0
17	875	0.0005009776	1
17	875	0.0005009776	0
17	876	0.0005009776	1
17	882	0.000501072	0
17	933	0.0005015136	1
17	933	0.0005015136	0
17	934	0.0005015136	1
17	940	0.000501608	0
17	994	0.0005020768	1
17	994	0.0005020768	0
17	1025	0.000625	1
17	1025	0.000625	0
17	1065	0.0006266896	1
17	1065	0.0006266896	0
17	1066	0.0006266896	1
17	1072	0.0006272	0
17	1123	0.0006288896	1
17	1123	0.0006288896	0
17	1161	0.00075	1
17	1161	0.00075	0
17	1205	0.0007504416	1
17	1205	0.0007504416	0
17	1206	0.0007504416	1
17	1212	0.000750536	0
17	1263	0.0007509776	1
17	1263	0.0007509776	0
17	1264	0.0007509776	1
17	1270	0.000751072	0
17	1321	0.0007515136	1
17	1321	0.0007515136	0
17	1322	0.0007515136	1
17	1328	0.000751608	0
17	1382	0.0007520768	1
17	1382	0.0007520768	0
17	1415	0.001	1
17	1415	0.001	0
17	1459	0.0010004416	1
17	1459	0.0010004416	0
17	1460	0.0010004416	1
17	1466	0.001000536	0
17	1517	0.0010009776	1
17	1517	0.0010009776	0
17	1518	0.0010009776	1
17	1524	0.001001072	0
17	1575	0.0010015136	1
17	1575	0.0010015136	0
17	1576	0.0010015136	1
17	1582	0.001001608	0
17	1636	0.0010020768	1
17	1636	0.0010020768	0
17	1671	0.00125	1
17	1671	0.00125	0
17	1711	0.0012516896	1
17	1711	0.0012516896	0
17	1712	0.0012516896	1
17	1718	0.0012522	0
17	1762	0.0012526416	1
17	1762	0.0012526416	0
17	1763	0.0012526416	1
17	1782	0.001252736	0
17	1833	0.0012531776	1
17	1833	0.0012531776	0
17	1834	0.0012531776	1
17	1840	0.001253272	0
17	1891	0.0012537136	1
17	1891	0.0012537136	0
17	1892	0.0012537136	1
17	1898	0.001253808	0
17	1954	0.0012542768	1
17	1954	0.0012542768	0
17	1955	0.0012542768	1
17	1961	0.0012543712	0
17	2011	0.001256088	1
17	2011	0.001256088	0
17	2055	0.0014	1
17	2055	0.0014	0
17	2084	0.0014022464	1
17	2084	0.0014022464	0
17	2085	0.0014022464	1
17	2091	0.0014033168	0
17	2139	0.0014055632	1
17	2139	0.0014055632	0
17	2177	0.0015	1
17	2177	0.0015	0
17	2221	0.0015004416	1
17	2221	0.0015004416	0
17	2222	0.0015004416	1
17	2228	0.001500536	0
17	2279	0.0015009776	1
17	2279	0.0015009776	0
17	2280	0.0015009776	1
17	2286	0.001501072	0
17	2337	0.0015015136	1
17	2337	0.0015015136	0
17	2338	0.0015015136	1
17	2344	0.001501608	0
17	2398	0.0015020768	1
17	2398	0.0015020768	0
17	2431	0.00175	1
17	2431	0.00175	0
17	2475	0.0017504416	1
17	2475	0.0017504416	0
17	2476	0.0017504416	1
17	2482	0.001750536	0
17	2533	0.0017509776	1
17	2533	0.0017509776	0
17	2534	0.0017509776	1
17	2540	0.001751072	0
17	2591	0.0017515136	1
17	2591	0.0017515136	0
17	2592	0.0017515136	1
17	2598	0.001751608	0
17	2652	0.0017520768	1
17	2652	0.0017520768	0
17	2683	0.001875	1
17	2683	0.001875	0
17	2723	0.0018766896	1
17	2723	0.0018766896	0
17	2724	0.0018766896	1
17	2730	0.0018772	0
17	2781	0.0018788896	1
17	2781	0.0018788896	0
17	2819	0.002	1
17	2819	0.002	0
17	2863	0.0020004416	1
17	2863	0.0020004416	0
17	2864	0.0020004416	1
17	2870	0.002000536	0
17	2921	0.0020009776	1
17	2921	0.0020009776	0
17	2922	0.0020009776	1
17	2928	0.002001072	0
17	2979	0.0020015136	1
17	2979	0.0020015136	0
17	2980	0.0020015136	1
17	2986	0.002001608	0
17	3040	0.0020020768	1
17	3040	0.0020020768	0
17	3073	0.00225	1
17	3073	0.00225	0
17	3117	0.0022504416	1
17	3117	0.0022504416	0
17	3118	0.0022504416	1
17	3124	0.002250536	0
17	3175	0.0022509776	1
17	3175	0.0022509776	0
17	3176	0.0022509776	1
17	3182	0.002251072	0
17	3233	0.0022515136	1
17	3233	0.0022515136	0
17	3234	0.0022515136	1
17	3240	0.002251608	0
17	3294	0.0022520768	1
17	3294	0.0022520768	0
17	3329	0.0025	1
17	3329	0.0025	0
17	3369	0.0025016896	1
17	3369	0.0025016896	0
17	3370	0.0025016896	1
17	3376	0.0025022	0
17	3420	0.0025026416	1
17	3420	0.0025026416	0
17	3421	0.0025026416	1
17	3440	0.002502736	0
17	3491	0.0025031776	1
17	3491	0.0025031776	0
17	3492	0.0025031776	1
17	3498	0.002503272	0
17	3549	0.0025037136	1
17	3549	0.0025037136	0
17	3550	0.0025037136	1
17	3556	0.002503808	0
17	3612	0.0025042768	1
17	3612	0.0025042768	0
17	3613	0.0025042768	1
17	3619	0.0025043712	0
17	3669	0.002506088	1
17	3669	0.002506088	0
17	3715	0.00275	1
17	3715	0.00275	0
17	3759	0.0027504416	1
17	3759	0.0027504416	0
17	3760	0.0027504416	1
17	3766	0.002750536	0
17	3817	0.0027509776	1
17	3817	0.0027509776	0
17	3818	0.0027509776	1
17	3824	0.002751072	0
17	3875	0.0027515136	1
17	3875	0.0027515136	0
17	3876	0.0027515136	1
17	3882	0.002751608	0
17	3936	0.0027520768	1
17	3936	0.0027520768	0
17	3959	0.0028	1
17	3959	0.0028	0
17	3988	0.0028022464	1
17	3988	0.0028022464	0
17	3989	0.0028022464	1
17	3995	0.0028033168	0
17	4043	0.0028055632	1
17	4043	0.0028055632	0
17	4089	0.003	1
17	4089	0.003	0
17	4133	0.0030004416	1
17	4133	0.0030004416	0
17	4134	0.0030004416	1
17	4140	0.003000536	0
17	4191	0.0030009776	1
17	4191	0.0030009776	0
17	4192	0.0030009776	1
17	4198	0.003001072	0
17	4249	0.0030015136	1
17	4249	0.0030015136	0
17	4250	0.0030015136	1
17	4256	0.003001608	0
17	4310	0.0030020768	1
17	4310	0.0030020768	0
17	4341	0.003125	1
17	4341	0.003125	0
17	4381	0.0031266896	1
17	4381	0.0031266896	0
17	4382	0.0031266896	1
17	4388	0.0031272	0
17	4439	0.0031288896	1
17	4439	0.0031288896	0
17	4477	0.00325	1
17	4477	0.00325	0
17	4521	0.0032504416	1
17	4521	0.0032504416	0
17	4522	0.0032504416	1
17	4528	0.003250536	0
17	4579	0.0032509776	1
17	4579	0.0032509776	0
17	4580	0.0032509776	1
17	4586	0.003251072	0
17	4637	0.0032515136	1
17	4637	0.0032515136	0
17	4638	0.0032515136	1
17	4644	0.003251608	0
17	4698	0.0032520768	1
17	4698	0.0032520768	0
17	4731	0.0035	1
17	4731	0.0035	0
17	4775	0.0035004416	1
17	4775	0.0035004416	0
17	4776	0.0035004416	1
17	4782	0.003500536	0
17	4833	0.0035009776	1
17	4833	0.0035009776	0
17	4834	0.0035009776	1
17	4840	0.003501072	0
17	4891	0.0035015136	1
17	4891	0.0035015136	0
17	4892	0.0035015136	1
17	4898	0.003501608	0
17	4952	0.0035020768	1
17	4952	0.0035020768	0
17	4987	0.00375	1
17	4987	0.00375	0
17	5027	0.0037516896	1
17	5027	0.0037516896	0
17	5028	0.0037516896	1
17	5034	0.0037522	0
17	5078	0.0037526416	1
17	5078	0.0037526416	0
17	5079	0.0037526416	1
17	5098	0.003752736	0
17	5149	0.0037531776	1
17	5149	0.0037531776	0
17	5150	0.0037531776	1
17	5156	0.003753272	0
17	5207	0.0037537136	1
17	5207	0.0037537136	0
17	5208	0.0037537136	1
17	5214	0.003753808	0
17	5270	0.0037542768	1
17	5270	0.0037542768	0
17	5271	0.0037542768	1
17	5277	0.0037543712	0
17	5327	0.003756088	1
17	5327	0.003756088	0
17	5373	0.004	1
17	5373	0.004	0
17	5417	0.0040004416	1
17	5417	0.0040004416	0
17	5418	0.0040004416	1
17	5424	0.004000536	0
17	5475	0.0040009776	1
17	5475	0.0040009776	0
17	5476	0.0040009776	1
17	5482	0.004001072	0
17	5533	0.0040015136	1
17	5533	0.0040015136	0
17	5534	0.0040015136	1
17	5540	0.004001608	0
17	5594	0.0040020768	1
17	5594	0.0040020768	0
17	5625	0.0042	1
17	5625	0.0042	0
17	5654	0.0042022464	1
17	5654	0.0042022464	0
17	5655	0.0042022464	1
17	5661	0.0042033168	0
17	5709	0.0042055632	1
17	5709	0.0042055632	0
17	5743	0.00425	1
17	5743	0.00425	0
17	5787	0.0042504416	1
17	5787	0.0042504416	0
17	5788	0.0042504416	1
17	5794	0.004250536	0
17	5845	0.0042509776	1
17	5845	0.0042509776	0
17	5846	0.0042509776	1
17	5852	0.004251072	0
17	5903	0.0042515136	1
17	5903	0.0042515136	0
17	5904	0.0042515136	1
17	5910	0.004251608	0
17	5964	0.0042520768	1
17	5964	0.0042520768	0
17	5999	0.004375	1
17	5999	0.004375	0
17	6039	0.0043766896	1
17	6039	0.0043766896	0
17	6040	0.0043766896	1
17	6046	0.0043772	0
17	6097	0.0043788896	1
17	6097	0.0043788896	0
17	6135	0.0045	1
17	6135	0.0045	0
17	6179	0.0045004416	1
17	6179	0.0045004416	0
17	6180	0.0045004416	1
17	6186	0.004500536	0
17	6237	0.0045009776	1
17	6237	0.0045009776	0
17	6238	0.0045009776	1
17	6244	0.004501072	0
17	6295	0.0045015136	1
17	6295	0.0045015136	0
17	6296	0.0045015136	1
17	6302	0.004501608	0
17	6356	0.0045020768	1
17	6356	0.0045020768	0
17	6389	0.00475	1
17	6389	0.00475	0
17	6433	0.0047504416	1
17	6433	0.0047504416	0
17	6434	0.0047504416	1
17	6440	0.004750536	0
17	6491	0.0047509776	1
17	6491	0.0047509776	0
17	6492	0.0047509776	1
17	6498	0.004751072	0
17	6549	0.0047515136	1
17	6549	0.0047515136	0
17	6550	0.0047515136	1
17	6556	0.004751608	0
17	6610	0.0047520768	1
17	6610	0.0047520768	0
17	6645	0.005	1
17	6645	0.005	0
17	6685	0.0050016896	1
17	6685	0.0050016896	0
17	6686	0.0050016896	1
17	6692	0.0050022	0
17	6736	0.0050026416	1
17	6736	0.0050026416	0
17	6737	0.0050026416	1
17	6756	0.005002736	0
17	6807	0.0050031776	1
17	6807	0.0050031776	0
17	6808	0.0050031776	1
17	6814	0.005003272	0
17	6865	0.0050037136	1
17	6865	0.0050037136	0
17	6866	0.0050037136	1
17	6872	0.005003808	0
17	6928	0.0050042768	1
17	6928	0.0050042768	0
17	6929	0.0050042768	1
17	6935	0.0050043712	0
17	6985	0.005006088	1
17	6985	0.005006088	0
17	7031	0.00525	1
17	7031	0.00525	0
17	7075	0.0052504416	1
17	7075	0.0052504416	0
17	7076	0.0052504416	1
17	7082	0.005250536	0
17	7133	0.0052509776	1
17	7133	0.0052509776	0
17	7134	0.0052509776	1
17	7140	0.005251072	0
17	7191	0.0052515136	1
17	7191	0.0052515136	0
17	7192	0.0052515136	1
17	7198	0.005251608	0
17	7252	0.0052520768	1
17	7252	0.0052520768	0
17	7285	0.0055	1
17	7285	0.0055	0
17	7329	0.0055004416	1
17	7329	0.0055004416	0
17	7330	0.0055004416	1
17	7336	0.005500536	0
17	7387	0.0055009776	1
17	7387	0.0055009776	0
17	7388	0.0055009776	1
17	7394	0.005501072	0
17	7445	0.0055015136	1
17	7445	0.0055015136	0
17	7446	0.0055015136	1
17	7452	0.005501608	0
17	7506	0.0055020768	1
17	7506	0.0055020768	0
17	7528	0.00555	1
17	7528	0.00555	0
17	7672	0.0055525664	1
17	7672	0.0055525664	0
17	7691	0.0055538016	1
17	7691	0.0055538016	0
17	7723	0.0055550368	1
17	7723	0.0055550368	0
17	7755	0.005556272	1
17	7755	0.005556272	0
17	7787	0.0055575072	1
17	7787	0.0055575072	0
17	7819	0.0055587424	1
17	7819	0.0055587424	0
17	7851	0.0055599776	1
17	7851	0.0055599776	0
17	7883	0.0055612128	1
17	7883	0.0055612128	0
17	7916	0.005562448	1
17	7916	0.005562448	0
17	7948	0.0055636832	1
17	7948	0.0055636832	0
17	7980	0.0055649184	1
17	7980	0.0055649184	0
17	8012	0.0055661536	1
17	8012	0.0055661536	0
17	8044	0.0055673888	1
17	8044	0.0055673888	0
17	8076	0.005568624	1
17	8076	0.005568624	0
17	8108	0.0055698592	1
17	8108	0.0055698592	0
17	8140	0.0055710944	1
17	8140	0.0055710944	0
17	8172	0.0055723296	1
17	8172	0.0055723296	0
17	8204	0.0055735648	1
17	8204	0.0055735648	0
17	8236	0.0055748	1
17	8236	0.0055748	0
17	8268	0.0055760352	1
17	8268	0.0055760352	0
17	8300	0.0055772704	1
17	8300	0.0055772704	0
17	8332	0.0055785056	1
17	8332	0.0055785056	0
17	8364	0.0055797408	1
17	8364	0.0055797408	0
17	8396	0.005580976	1
17	8396	0.005580976	0
17	8428	0.0055822112	1
17	8428	0.0055822112	0
17	8460	0.0055834464	1
17	8460	0.0055834464	0
17	8492	0.0055846816	1
17	8492	0.0055846816	0
17	8524	0.0055859168	1
17	8524	0.0055859168	0
17	8556	0.005587152	1
17	8556	0.005587152	0
17	8588	0.0055883872	1
17	8588	0.0055883872	0
17	8620	0.0055896224	1
17	8620	0.0055896224	0
17	8652	0.0055908576	1
17	8652	0.0055908576	0
17	8684	0.0055920928	1
17	8684	0.0055920928	0
17	8716	0.005593328	1
17	8716	0.005593328	0
17	8748	0.0055945632	1
17	8748	0.0055945632	0
17	8780	0.0055957984	1
17	8780	0.0055957984	0
17	8812	0.0055970336	1
17	8812	0.0055970336	0
17	8844	0.0055982688	1
17	8844	0.0055982688	0
17	8876	0.005599504	1
17	8876	0.005599504	0
17	8895	0.0056	1
17	8913	0.0056007344	0
18	523	0.0002500576	1
18	523	0.0002500576	0
18	574	0.0002505936	1
18	574	0.0002505936	0
18	632	0.0002511296	1
18	632	0.0002511296	0
18	685	0.0002515984	1
18	685	0.0002515984	0
18	690	0.0002516656	1
18	696	0.0002516928	0
18	745	0.0002521616	1
18	745	0.0002521616	0
18	777	0.0005000576	1
18	777	0.0005000576	0
18	828	0.0005005936	1
18	828	0.0005005936	0
18	886	0.0005011296	1
18	886	0.0005011296	0
18	939	0.0005015984	1
18	939	0.0005015984	0
18	944	0.0005016656	1
18	950	0.0005016928	0
18	999	0.0005021616	1
18	999	0.0005021616	0
18	1029	0.0006250576	1
18	1029	0.0006250576	0
18	1076	0.0006272576	1
18	1076	0.0006272576	0
18	1165	0.0007500576	1
18	1165	0.0007500576	0
18	1216	0.0007505936	1
18	1216	0.0007505936	0
18	1274	0.0007511296	1
18	1274	0.0007511296	0
18	1327	0.0007515984	1
18	1327	0.0007515984	0
18	1332	0.0007516656	1
18	1338	0.0007516928	0
18	1387	0.0007521616	1
18	1387	0.0007521616	0
18	1419	0.0010000576	1
18	1419	0.0010000576	0
18	1470	0.0010005936	1
18	1470	0.0010005936	0
18	1528	0.0010011296	1
18	1528	0.0010011296	0
18	1581	0.0010015984	1
18	1581	0.0010015984	0
18	1586	0.0010016656	1
18	1592	0.0010016928	0
18	1641	0.0010021616	1
18	1641	0.0010021616	0
18	1675	0.0012500576	1
18	1675	0.0012500576	0
18	1722	0.0012522576	1
18	1722	0.0012522576	0
18	1786	0.0012527936	1
18	1786	0.0012527936	0
18	1844	0.0012533296	1
18	1844	0.0012533296	0
18	1897	0.0012537984	1
18	1897	0.0012537984	0
18	1902	0.0012538656	1
18	1908	0.0012538928	0
18	1960	0.0012543616	1
18	1960	0.0012543616	0
18	1965	0.0012544288	1
18	1971	0.001254456	0
18	2181	0.0015000576	1
18	2181	0.0015000576	0
18	2232	0.0015005936	1
18	2232	0.0015005936	0
18	2290	0.0015011296	1
18	2290	0.0015011296	0
18	2343	0.0015015984	1
18	2343	0.0015015984	0
18	2348	0.0015016656	1
18	2354	0.0015016928	0
18	2403	0.0015021616	1
18	2403	0.0015021616	0
18	2435	0.0017500576	1
18	2435	0.0017500576	0
18	2486	0.0017505936	1
18	2486	0.0017505936	0
18	2544	0.0017511296	1
18	2544	0.0017511296	0
18	2597	0.0017515984	1
18	2597	0.0017515984	0
18	2602	0.0017516656	1
18	2608	0.0017516928	0
18	2657	0.0017521616	1
18	2657	0.0017521616	0
18	2687	0.0018750576	1
18	2687	0.0018750576	0
18	2734	0.0018772576	1
18	2734	0.0018772576	0
18	2823	0.0020000576	1
18	2823	0.0020000576	0
18	2874	0.0020005936	1
18	2874	0.0020005936	0
18	2932	0.0020011296	1
18	2932	0.0020011296	0
18	2985	0.0020015984	1
18	2985	0.0020015984	0
18	2990	0.0020016656	1
18	2996	0.0020016928	0
18	3045	0.0020021616	1
18	3045	0.0020021616	0
18	3077	0.0022500576	1
18	3077	0.0022500576	0
18	3128	0.0022505936	1
18	3128	0.0022505936	0
18	3186	0.0022511296	1
18	3186	0.0022511296	0
18	3239	0.0022515984	1
18	3239	0.0022515984	0
18	3244	0.0022516656	1
18	3250	0.0022516928	0
18	3299	0.0022521616	1
18	3299	0.0022521616	0
18	3333	0.0025000576	1
18	3333	0.0025000576	0
18	3380	0.0025022576	1
18	3380	0.0025022576	0
18	3444	0.0025027936	1
18	3444	0.0025027936	0
18	3502	0.0025033296	1
18	3502	0.0025033296	0
18	3555	0.0025037984	1
18	3555	0.0025037984	0
18	3560	0.0025038656	1
18	3566	0.0025038928	0
18	3618	0.0025043616	1
18	3618	0.0025043616	0
18	3623	0.0025044288	1
18	3629	0.002504456	0
18	3719	0.0027500576	1
18	3719	0.0027500576	0
18	3770	0.0027505936	1
18	3770	0.0027505936	0
18	3828	0.0027511296	1
18	3828	0.0027511296	0
18	3881	0.0027515984	1
18	3881	0.0027515984	0
18	3886	0.0027516656	1
18	3892	0.0027516928	0
18	3941	0.0027521616	1
18	3941	0.0027521616	0
18	4093	0.0030000576	1
18	4093	0.0030000576	0
18	4144	0.0030005936	1
18	4144	0.0030005936	0
18	4202	0.0030011296	1
18	4202	0.0030011296	0
18	4255	0.0030015984	1
18	4255	0.0030015984	0
18	4260	0.0030016656	1
18	4266	0.0030016928	0
18	4315	0.0030021616	1
18	4315	0.0030021616	0
18	4345	0.0031250576	1
18	4345	0.0031250576	0
18	4392	0.0031272576	1
18	4392	0.0031272576	0
18	4481	0.0032500576	1
18	4481	0.0032500576	0
18	4532	0.0032505936	1
18	4532	0.0032505936	0
18	4590	0.0032511296	1
18	4590	0.0032511296	0
18	4643	0.0032515984	1
18	4643	0.0032515984	0
18	4648	0.0032516656	1
18	4654	0.0032516928	0
18	4703	0.0032521616	1
18	4703	0.0032521616	0
18	4735	0.0035000576	1
18	4735	0.0035000576	0
18	4786	0.0035005936	1
18	4786	0.0035005936	0
18	4844	0.0035011296	1
18	4844	0.0035011296	0
18	4897	0.0035015984	1
18	4897	0.0035015984	0
18	4902	0.0035016656	1
18	4908	0.0035016928	0
18	4957	0.0035021616	1
18	4957	0.0035021616	0
18	4991	0.0037500576	1
18	4991	0.0037500576	0
18	5038	0.0037522576	1
18	5038	0.0037522576	0
18	5102	0.0037527936	1
18	5102	0.0037527936	0
18	5160	0.0037533296	1
18	5160	0.0037533296	0
18	5213	0.0037537984	1
18	5213	0.0037537984	0
18	5218	0.0037538656	1
18	5224	0.0037538928	0
18	5276	0.0037543616	1
18	5276	0.0037543616	0
18	5281	0.0037544288	1
18	5287	0.003754456	0
18	5377	0.0040000576	1
18	5377	0.0040000576	0
18	5428	0.0040005936	1
18	5428	0.0040005936	0
18	5486	0.0040011296	1
18	5486	0.0040011296	0
18	5539	0.0040015984	1
18	5539	0.0040015984	0
18	5544	0.0040016656	1
18	5550	0.0040016928	0
18	5599	0.0040021616	1
18	5599	0.0040021616	0
18	5747	0.0042500576	1
18	5747	0.0042500576	0
18	5798	0.0042505936	1
18	5798	0.0042505936	0
18	5856	0.0042511296	1
18	5856	0.0042511296	0
18	5909	0.0042515984	1
18	5909	0.0042515984	0
18	5914	0.0042516656	1
18	5920	0.0042516928	0
18	5969	0.0042521616	1
18	5969	0.0042521616	0
18	6003	0.0043750576	1
18	6003	0.0043750576	0
18	6050	0.0043772576	1
18	6050	0.0043772576	0
18	6139	0.0045000576	1
18	6139	0.0045000576	0
18	6190	0.0045005936	1
18	6190	0.0045005936	0
18	6248	0.0045011296	1
18	6248	0.0045011296	0
18	6301	0.0045015984	1
18	6301	0.0045015984	0
18	6306	0.0045016656	1
18	6312	0.0045016928	0
18	6361	0.0045021616	1
18	6361	0.0045021616	0
18	6393	0.0047500576	1
18	6393	0.0047500576	0
18	6444	0.0047505936	1
18	6444	0.0047505936	0
18	6502	0.0047511296	1
18	6502	0.0047511296	0
18	6555	0.0047515984	1
18	6555	0.0047515984	0
18	6560	0.0047516656	1
18	6566	0.0047516928	0
18	6615	0.0047521616	1
18	6615	0.0047521616	0
18	6649	0.0050000576	1
18	6649	0.0050000576	0
18	6696	0.0050022576	1
18	6696	0.0050022576	0
18	6760	0.0050027936	1
18	6760	0.0050027936	0
18	6818	0.0050033296	1
18	6818	0.0050033296	0
18	6871	0.0050037984	1
18	6871	0.0050037984	0
18	6876	0.0050038656	1
18	6882	0.0050038928	0
18	6934	0.0050043616	1
18	6934	0.0050043616	0
18	6939	0.0050044288	1
18	6945	0.005004456	0
18	7035	0.0052500576	1
18	7035	0.0052500576	0
18	7086	0.0052505936	1
18	7086	0.0052505936	0
18	7144	0.0052511296	1
18	7144	0.0052511296	0
18	7197	0.0052515984	1
18	7197	0.0052515984	0
18	7202	0.0052516656	1
18	7208	0.0052516928	0
18	7257	0.0052521616	1
18	7257	0.0052521616	0
18	7289	0.0055000576	1
18	7289	0.0055000576	0
18	7340	0.0055005936	1
18	7340	0.0055005936	0
18	7398	0.0055011296	1
18	7398	0.0055011296	0
18	7451	0.0055015984	1
18	7451	0.0055015984	0
18	7456	0.0055016656	1
18	7462	0.0055016928	0
18	7511	0.0055021616	1
18	7511	0.0055021616	0
19	528	0.0002501152	1
19	528	0.0002501152	0
19	586	0.0002506512	1
19	586	0.0002506512	0
19	644	0.0002511872	1
19	644	0.0002511872	0
19	700	0.0002517504	1
19	700	0.0002517504	0
19	782	0.0005001152	1
19	782	0.0005001152	0
19	840	0.0005006512	1
19	840	0.0005006512	0
19	898	0.0005011872	1
19	898	0.0005011872	0
19	954	0.0005017504	1
19	954	0.0005017504	0
19	1170	0.0007501152	1
19	1170	0.0007501152	0
19	1228	0.0007506512	1
19	1228	0.0007506512	0
19	1286	0.0007511872	1
19	1286	0.0007511872	0
19	1342	0.0007517504	1
19	1342	0.0007517504	0
19	1424	0.0010001152	1
19	1424	0.0010001152	0
19	1482	0.0010006512	1
19	1482	0.0010006512	0
19	1540	0.0010011872	1
19	1540	0.0010011872	0
19	1596	0.0010017504	1
19	1596	0.0010017504	0
19	1727	0.0012523152	1
19	1727	0.0012523152	0
19	1798	0.0012528512	1
19	1798	0.0012528512	0
19	1856	0.0012533872	1
19	1856	0.0012533872	0
19	1912	0.0012539504	1
19	1912	0.0012539504	0
19	2186	0.0015001152	1
19	2186	0.0015001152	0
19	2244	0.0015006512	1
19	2244	0.0015006512	0
19	2302	0.0015011872	1
19	2302	0.0015011872	0
19	2358	0.0015017504	1
19	2358	0.0015017504	0
19	2440	0.0017501152	1
19	2440	0.0017501152	0
19	2498	0.0017506512	1
19	2498	0.0017506512	0
19	2556	0.0017511872	1
19	2556	0.0017511872	0
19	2612	0.0017517504	1
19	2612	0.0017517504	0
19	2828	0.0020001152	1
19	2828	0.0020001152	0
19	2886	0.0020006512	1
19	2886	0.0020006512	0
19	2944	0.0020011872	1
19	2944	0.0020011872	0
19	3000	0.0020017504	1
19	3000	0.0020017504	0
19	3082	0.0022501152	1
19	3082	0.0022501152	0
19	3140	0.0022506512	1
19	3140	0.0022506512	0
19	3198	0.0022511872	1
19	3198	0.0022511872	0
19	3254	0.0022517504	1
19	3254	0.0022517504	0
19	3385	0.0025023152	1
19	3385	0.0025023152	0
19	3456	0.0025028512	1
19	3456	0.0025028512	0
19	3514	0.0025033872	1
19	3514	0.0025033872	0
19	3570	0.0025039504	1
19	3570	0.0025039504	0
19	3724	0.0027501152	1
19	3724	0.0027501152	0
19	3782	0.0027506512	1
19	3782	0.0027506512	0
19	3840	0.0027511872	1
19	3840	0.0027511872	0
19	3896	0.0027517504	1
19	3896	0.0027517504	0
19	4098	0.0030001152	1
19	4098	0.0030001152	0
19	4156	0.0030006512	1
19	4156	0.0030006512	0
19	4214	0.0030011872	1
19	4214	0.0030011872	0
19	4270	0.0030017504	1
19	4270	0.0030017504	0
19	4486	0.0032501152	1
19	4486	0.0032501152	0
19	4544	0.0032506512	1
19	4544	0.0032506512	0
19	4602	0.0032511872	1
19	4602	0.0032511872	0
19	4658	0.0032517504	1
19	4658	0.0032517504	0
19	4740	0.0035001152	1
19	4740	0.0035001152	0
19	4798	0.0035006512	1
19	4798	0.0035006512	0
19	4856	0.0035011872	1
19	4856	0.0035011872	0
19	4912	0.0035017504	1
19	4912	0.0035017504	0
19	5043	0.0037523152	1
19	5043	0.0037523152	0
19	5114	0.0037528512	1
19	5114	0.0037528512	0
19	5172	0.0037533872	1
19	5172	0.0037533872	0
19	5228	0.0037539504	1
19	5228	0.0037539504	0
19	5382	0.0040001152	1
19	5382	0.0040001152	0
19	5440	0.0040006512	1
19	5440	0.0040006512	0
19	5498	0.0040011872	1
19	5498	0.0040011872	0
19	5554	0.0040017504	1
19	5554	0.0040017504	0
19	5752	0.0042501152	1
19	5752	0.0042501152	0
19	5810	0.0042506512	1
19	5810	0.0042506512	0
19	5868	0.0042511872	1
19	5868	0.0042511872	0
19	5924	0.0042517504	1
19	5924	0.0042517504	0
19	6144	0.0045001152	1
19	6144	0.0045001152	0
19	6202	0.0045006512	1
19	6202	0.0045006512	0
19	6260	0.0045011872	1
19	6260	0.0045011872	0
19	6316	0.0045017504	1
19	6316	0.0045017504	0
19	6398	0.0047501152	1
19	6398	0.0047501152	0
19	6456	0.0047506512	1
19	6456	0.0047506512	0
19	6514	0.0047511872	1
19	6514	0.0047511872	0
19	6570	0.0047517504	1
19	6570	0.0047517504	0
19	6701	0.0050023152	1
19	6701	0.0050023152	0
19	6772	0.0050028512	1
19	6772	0.0050028512	0
19	6830	0.0050033872	1
19	6830	0.0050033872	0
19	6886	0.0050039504	1
19	6886	0.0050039504	0
19	7040	0.0052501152	1
19	7040	0.0052501152	0
19	7098	0.0052506512	1
19	7098	0.0052506512	0
19	7156	0.0052511872	1
19	7156	0.0052511872	0
19	7212	0.0052517504	1
19	7212	0.0052517504	0
19	7294	0.0055001152	1
19	7294	0.0055001152	0
19	7352	0.0055006512	1
19	7352	0.0055006512	0
19	7410	0.0055011872	1
19	7410	0.0055011872	0
19	7466	0.0055017504	1
19	7466	0.0055017504	0
20	542	0.0002501728	1
20	542	0.0002501728	0
20	600	0.0002507088	1
20	600	0.0002507088	0
20	658	0.0002512448	1
20	658	0.0002512448	0
20	721	0.000251808	1
20	721	0.000251808	0
20	796	0.0005001728	1
20	796	0.0005001728	0
20	854	0.0005007088	1
20	854	0.0005007088	0
20	912	0.0005012448	1
20	912	0.0005012448	0
20	975	0.000501808	1
20	975	0.000501808	0
20	1184	0.0007501728	1
20	1184	0.0007501728	0
20	1242	0.0007507088	1
20	1242	0.0007507088	0
20	1300	0.0007512448	1
20	1300	0.0007512448	0
20	1363	0.000751808	1
20	1363	0.000751808	0
20	1438	0.0010001728	1
20	1438	0.0010001728	0
20	1496	0.0010007088	1
20	1496	0.0010007088	0
20	1554	0.0010012448	1
20	1554	0.0010012448	0
20	1617	0.001001808	1
20	1617	0.001001808	0
20	1741	0.0012523728	1
20	1741	0.0012523728	0
20	1812	0.0012529088	1
20	1812	0.0012529088	0
20	1870	0.0012534448	1
20	1870	0.0012534448	0
20	1933	0.001254008	1
20	1933	0.001254008	0
20	2200	0.0015001728	1
20	2200	0.0015001728	0
20	2258	0.0015007088	1
20	2258	0.0015007088	0
20	2316	0.0015012448	1
20	2316	0.0015012448	0
20	2379	0.001501808	1
20	2379	0.001501808	0
20	2454	0.0017501728	1
20	2454	0.0017501728	0
20	2512	0.0017507088	1
20	2512	0.0017507088	0
20	2570	0.0017512448	1
20	2570	0.0017512448	0
20	2633	0.001751808	1
20	2633	0.001751808	0
20	2842	0.0020001728	1
20	2842	0.0020001728	0
20	2900	0.0020007088	1
20	2900	0.0020007088	0
20	2958	0.0020012448	1
20	2958	0.0020012448	0
20	3021	0.002001808	1
20	3021	0.002001808	0
20	3096	0.0022501728	1
20	3096	0.0022501728	0
20	3154	0.0022507088	1
20	3154	0.0022507088	0
20	3212	0.0022512448	1
20	3212	0.0022512448	0
20	3275	0.002251808	1
20	3275	0.002251808	0
20	3399	0.0025023728	1
20	3399	0.0025023728	0
20	3470	0.0025029088	1
20	3470	0.0025029088	0
20	3528	0.0025034448	1
20	3528	0.0025034448	0
20	3591	0.002504008	1
20	3591	0.002504008	0
20	3738	0.0027501728	1
20	3738	0.0027501728	0
20	3796	0.0027507088	1
20	3796	0.0027507088	0
20	3854	0.0027512448	1
20	3854	0.0027512448	0
20	3917	0.002751808	1
20	3917	0.002751808	0
20	4112	0.0030001728	1
20	4112	0.0030001728	0
20	4170	0.0030007088	1
20	4170	0.0030007088	0
20	4228	0.0030012448	1
20	4228	0.0030012448	0
20	4291	0.003001808	1
20	4291	0.003001808	0
20	4500	0.0032501728	1
20	4500	0.0032501728	0
20	4558	0.0032507088	1
20	4558	0.0032507088	0
20	4616	0.0032512448	1
20	4616	0.0032512448	0
20	4679	0.003251808	1
20	4679	0.003251808	0
20	4754	0.0035001728	1
20	4754	0.0035001728	0
20	4812	0.0035007088	1
20	4812	0.0035007088	0
20	4870	0.0035012448	1
20	4870	0.0035012448	0
20	4933	0.003501808	1
20	4933	0.003501808	0
20	5057	0.0037523728	1
20	5057	0.0037523728	0
20	5128	0.0037529088	1
20	5128	0.0037529088	0
20	5186	0.0037534448	1
20	5186	0.0037534448	0
20	5249	0.003754008	1
20	5249	0.003754008	0
20	5396	0.0040001728	1
20	5396	0.0040001728	0
20	5454	0.0040007088	1
20	5454	0.0040007088	0
20	5512	0.0040012448	1
20	5512	0.0040012448	0
20	5575	0.004001808	1
20	5575	0.004001808	0
20	5766	0.0042501728	1
20	5766	0.0042501728	0
20	5824	0.0042507088	1
20	5824	0.0042507088	0
20	5882	0.0042512448	1
20	5882	0.0042512448	0
20	5945	0.004251808	1
20	5945	0.004251808	0
20	6158	0.0045001728	1
20	6158	0.0045001728	0
20	6216	0.0045007088	1
20	6216	0.0045007088	0
20	6274	0.0045012448	1
20	6274	0.0045012448	0
20	6337	0.004501808	1
20	6337	0.004501808	0
20	6412	0.0047501728	1
20	6412	0.0047501728	0
20	6470	0.0047507088	1
20	6470	0.0047507088	0
20	6528	0.0047512448	1
20	6528	0.0047512448	0
20	6591	0.004751808	1
20	6591	0.004751808	0
20	6715	0.0050023728	1
20	6715	0.0050023728	0
20	6786	0.0050029088	1
20	6786	0.0050029088	0
20	6844	0.0050034448	1
20	6844	0.0050034448	0
20	6907	0.005004008	1
20	6907	0.005004008	0
20	7054	0.0052501728	1
20	7054	0.0052501728	0
20	7112	0.0052507088	1
20	7112	0.0052507088	0
20	7170	0.0052512448	1
20	7170	0.0052512448	0
20	7233	0.005251808	1
20	7233	0.005251808	0
20	7308	0.0055001728	1
20	7308	0.0055001728	0
20	7366	0.0055007088	1
20	7366	0.0055007088	0
20	7424	0.0055012448	1
20	7424	0.0055012448	0
20	7487	0.005501808	1
20	7487	0.005501808	0
21	547	0.0002502624	1
21	547	0.0002502624	0
21	605	0.0002507984	1
21	605	0.0002507984	0
21	663	0.0002513344	1
21	663	0.0002513344	0
21	726	0.0002518976	1
21	726	0.0002518976	0
21	801	0.0005002624	1
21	801	0.0005002624	0
21	859	0.0005007984	1
21	859	0.0005007984	0
21	917	0.0005013344	1
21	917	0.0005013344	0
21	980	0.0005018976	1
21	980	0.0005018976	0
21	1049	0.0006256784	1
21	1049	0.0006256784	0
21	1109	0.0006278784	1
21	1109	0.0006278784	0
21	1189	0.0007502624	1
21	1189	0.0007502624	0
21	1247	0.0007507984	1
21	1247	0.0007507984	0
21	1305	0.0007513344	1
21	1305	0.0007513344	0
21	1368	0.0007518976	1
21	1368	0.0007518976	0
21	1443	0.0010002624	1
21	1443	0.0010002624	0
21	1501	0.0010007984	1
21	1501	0.0010007984	0
21	1559	0.0010013344	1
21	1559	0.0010013344	0
21	1622	0.0010018976	1
21	1622	0.0010018976	0
21	1695	0.0012506784	1
21	1695	0.0012506784	0
21	1746	0.0012524624	1
21	1746	0.0012524624	0
21	1817	0.0012529984	1
21	1817	0.0012529984	0
21	1875	0.0012535344	1
21	1875	0.0012535344	0
21	1938	0.0012540976	1
21	1938	0.0012540976	0
21	1997	0.0012550768	1
21	1997	0.0012550768	0
21	2205	0.0015002624	1
21	2205	0.0015002624	0
21	2263	0.0015007984	1
21	2263	0.0015007984	0
21	2321	0.0015013344	1
21	2321	0.0015013344	0
21	2384	0.0015018976	1
21	2384	0.0015018976	0
21	2459	0.0017502624	1
21	2459	0.0017502624	0
21	2517	0.0017507984	1
21	2517	0.0017507984	0
21	2575	0.0017513344	1
21	2575	0.0017513344	0
21	2638	0.0017518976	1
21	2638	0.0017518976	0
21	2707	0.0018756784	1
21	2707	0.0018756784	0
21	2767	0.0018778784	1
21	2767	0.0018778784	0
21	2847	0.0020002624	1
21	2847	0.0020002624	0
21	2905	0.0020007984	1
21	2905	0.0020007984	0
21	2963	0.0020013344	1
21	2963	0.0020013344	0
21	3026	0.0020018976	1
21	3026	0.0020018976	0
21	3101	0.0022502624	1
21	3101	0.0022502624	0
21	3159	0.0022507984	1
21	3159	0.0022507984	0
21	3217	0.0022513344	1
21	3217	0.0022513344	0
21	3280	0.0022518976	1
21	3280	0.0022518976	0
21	3353	0.0025006784	1
21	3353	0.0025006784	0
21	3404	0.0025024624	1
21	3404	0.0025024624	0
21	3475	0.0025029984	1
21	3475	0.0025029984	0
21	3533	0.0025035344	1
21	3533	0.0025035344	0
21	3596	0.0025040976	1
21	3596	0.0025040976	0
21	3655	0.0025050768	1
21	3655	0.0025050768	0
21	3743	0.0027502624	1
21	3743	0.0027502624	0
21	3801	0.0027507984	1
21	3801	0.0027507984	0
21	3859	0.0027513344	1
21	3859	0.0027513344	0
21	3922	0.0027518976	1
21	3922	0.0027518976	0
21	4117	0.0030002624	1
21	4117	0.0030002624	0
21	4175	0.0030007984	1
21	4175	0.0030007984	0
21	4233	0.0030013344	1
21	4233	0.0030013344	0
21	4296	0.0030018976	1
21	4296	0.0030018976	0
21	4365	0.0031256784	1
21	4365	0.0031256784	0
21	4425	0.0031278784	1
21	4425	0.0031278784	0
21	4505	0.0032502624	1
21	4505	0.0032502624	0
21	4563	0.0032507984	1
21	4563	0.0032507984	0
21	4621	0.0032513344	1
21	4621	0.0032513344	0
21	4684	0.0032518976	1
21	4684	0.0032518976	0
21	4759	0.0035002624	1
21	4759	0.0035002624	0
21	4817	0.0035007984	1
21	4817	0.0035007984	0
21	4875	0.0035013344	1
21	4875	0.0035013344	0
21	4938	0.0035018976	1
21	4938	0.0035018976	0
21	5011	0.0037506784	1
21	5011	0.0037506784	0
21	5062	0.0037524624	1
21	5062	0.0037524624	0
21	5133	0.0037529984	1
21	5133	0.0037529984	0
21	5191	0.0037535344	1
21	5191	0.0037535344	0
21	5254	0.0037540976	1
21	5254	0.0037540976	0
21	5313	0.0037550768	1
21	5313	0.0037550768	0
21	5401	0.0040002624	1
21	5401	0.0040002624	0
21	5459	0.0040007984	1
21	5459	0.0040007984	0
21	5517	0.0040013344	1
21	5517	0.0040013344	0
21	5580	0.0040018976	1
21	5580	0.0040018976	0
21	5771	0.0042502624	1
21	5771	0.0042502624	0
21	5829	0.0042507984	1
21	5829	0.0042507984	0
21	5887	0.0042513344	1
21	5887	0.0042513344	0
21	5950	0.0042518976	1
21	5950	0.0042518976	0
21	6023	0.0043756784	1
21	6023	0.0043756784	0
21	6083	0.0043778784	1
21	6083	0.0043778784	0
21	6163	0.0045002624	1
21	6163	0.0045002624	0
21	6221	0.0045007984	1
21	6221	0.0045007984	0
21	6279	0.0045013344	1
21	6279	0.0045013344	0
21	6342	0.0045018976	1
21	6342	0.0045018976	0
21	6417	0.0047502624	1
21	6417	0.0047502624	0
21	6475	0.0047507984	1
21	6475	0.0047507984	0
21	6533	0.0047513344	1
21	6533	0.0047513344	0
21	6596	0.0047518976	1
21	6596	0.0047518976	0
21	6669	0.0050006784	1
21	6669	0.0050006784	0
21	6720	0.0050024624	1
21	6720	0.0050024624	0
21	6791	0.0050029984	1
21	6791	0.0050029984	0
21	6849	0.0050035344	1
21	6849	0.0050035344	0
21	6912	0.0050040976	1
21	6912	0.0050040976	0
21	6971	0.0050050768	1
21	6971	0.0050050768	0
21	7059	0.0052502624	1
21	7059	0.0052502624	0
21	7117	0.0052507984	1
21	7117	0.0052507984	0
21	7175	0.0052513344	1
21	7175	0.0052513344	0
21	7238	0.0052518976	1
21	7238	0.0052518976	0
21	7313	0.0055002624	1
21	7313	0.0055002624	0
21	7371	0.0055007984	1
21	7371	0.0055007984	0
21	7429	0.0055013344	1
21	7429	0.0055013344	0
21	7492	0.0055018976	1
21	7492	0.0055018976	0
22	552	0.000250352	1
22	552	0.000250352	0
22	610	0.000250888	1
22	610	0.000250888	0
22	668	0.000251424	1
22	668	0.000251424	0
22	731	0.0002519872	1
22	731	0.0002519872	0
22	806	0.000500352	1
22	806	0.000500352	0
22	864	0.000500888	1
22	864	0.000500888	0
22	922	0.000501424	1
22	922	0.000501424	0
22	985	0.0005019872	1
22	985	0.0005019872	0
22	1054	0.000626184	1
22	1054	0.000626184	0
22	1114	0.000628384	1
22	1114	0.000628384	0
22	1194	0.000750352	1
22	1194	0.000750352	0
22	1252	0.000750888	1
22	1252	0.000750888	0
22	1310	0.000751424	1
22	1310	0.000751424	0
22	1373	0.0007519872	1
22	1373	0.0007519872	0
22	1448	0.001000352	1
22	1448	0.001000352	0
22	1506	0.001000888	1
22	1506	0.001000888	0
22	1564	0.001001424	1
22	1564	0.001001424	0
22	1627	0.0010019872	1
22	1627	0.0010019872	0
22	1700	0.001251184	1
22	1700	0.001251184	0
22	1751	0.001252552	1
22	1751	0.001252552	0
22	1822	0.001253088	1
22	1822	0.001253088	0
22	1880	0.001253624	1
22	1880	0.001253624	0
22	1943	0.0012541872	1
22	1943	0.0012541872	0
22	2002	0.0012555824	1
22	2002	0.0012555824	0
22	2073	0.0014011808	1
22	2073	0.0014011808	0
22	2130	0.0014044976	1
22	2130	0.0014044976	0
22	2210	0.001500352	1
22	2210	0.001500352	0
22	2268	0.001500888	1
22	2268	0.001500888	0
22	2326	0.001501424	1
22	2326	0.001501424	0
22	2389	0.0015019872	1
22	2389	0.0015019872	0
22	2464	0.001750352	1
22	2464	0.001750352	0
22	2522	0.001750888	1
22	2522	0.001750888	0
22	2580	0.001751424	1
22	2580	0.001751424	0
22	2643	0.0017519872	1
22	2643	0.0017519872	0
22	2712	0.001876184	1
22	2712	0.001876184	0
22	2772	0.001878384	1
22	2772	0.001878384	0
22	2852	0.002000352	1
22	2852	0.002000352	0
22	2910	0.002000888	1
22	2910	0.002000888	0
22	2968	0.002001424	1
22	2968	0.002001424	0
22	3031	0.0020019872	1
22	3031	0.0020019872	0
22	3106	0.002250352	1
22	3106	0.002250352	0
22	3164	0.002250888	1
22	3164	0.002250888	0
22	3222	0.002251424	1
22	3222	0.002251424	0
22	3285	0.0022519872	1
22	3285	0.0022519872	0
22	3358	0.002501184	1
22	3358	0.002501184	0
22	3409	0.002502552	1
22	3409	0.002502552	0
22	3480	0.002503088	1
22	3480	0.002503088	0
22	3538	0.002503624	1
22	3538	0.002503624	0
22	3601	0.0025041872	1
22	3601	0.0025041872	0
22	3660	0.0025055824	1
22	3660	0.0025055824	0
22	3748	0.002750352	1
22	3748	0.002750352	0
22	3806	0.002750888	1
22	3806	0.002750888	0
22	3864	0.002751424	1
22	3864	0.002751424	0
22	3927	0.0027519872	1
22	3927	0.0027519872	0
22	3977	0.0028011808	1
22	3977	0.0028011808	0
22	4034	0.0028044976	1
22	4034	0.0028044976	0
22	4122	0.003000352	1
22	4122	0.003000352	0
22	4180	0.003000888	1
22	4180	0.003000888	0
22	4238	0.003001424	1
22	4238	0.003001424	0
22	4301	0.0030019872	1
22	4301	0.0030019872	0
22	4370	0.003126184	1
22	4370	0.003126184	0
22	4430	0.003128384	1
22	4430	0.003128384	0
22	4510	0.003250352	1
22	4510	0.003250352	0
22	4568	0.003250888	1
22	4568	0.003250888	0
22	4626	0.003251424	1
22	4626	0.003251424	0
22	4689	0.0032519872	1
22	4689	0.0032519872	0
22	4764	0.003500352	1
22	4764	0.003500352	0
22	4822	0.003500888	1
22	4822	0.003500888	0
22	4880	0.003501424	1
22	4880	0.003501424	0
22	4943	0.0035019872	1
22	4943	0.0035019872	0
22	5016	0.003751184	1
22	5016	0.003751184	0
22	5067	0.003752552	1
22	5067	0.003752552	0
22	5138	0.003753088	1
22	5138	0.003753088	0
22	5196	0.003753624	1
22	5196	0.003753624	0
22	5259	0.0037541872	1
22	5259	0.0037541872	0
22	5318	0.0037555824	1
22	5318	0.0037555824	0
22	5406	0.004000352	1
22	5406	0.004000352	0
22	5464	0.004000888	1
22	5464	0.004000888	0
22	5522	0.004001424	1
22	5522	0.004001424	0
22	5585	0.0040019872	1
22	5585	0.0040019872	0
22	5643	0.0042011808	1
22	5643	0.0042011808	0
22	5700	0.0042044976	1
22	5700	0.0042044976	0
22	5776	0.004250352	1
22	5776	0.004250352	0
22	5834	0.004250888	1
22	5834	0.004250888	0
22	5892	0.004251424	1
22	5892	0.004251424	0
22	5955	0.0042519872	1
22	5955	0.0042519872	0
22	6028	0.004376184	1
22	6028	0.004376184	0
22	6088	0.004378384	1
22	6088	0.004378384	0
22	6168	0.004500352	1
22	6168	0.004500352	0
22	6226	0.004500888	1
22	6226	0.004500888	0
22	6284	0.004501424	1
22	6284	0.004501424	0
22	6347	0.0045019872	1
22	6347	0.0045019872	0
22	6422	0.004750352	1
22	6422	0.004750352	0
22	6480	0.004750888	1
22	6480	0.004750888	0
22	6538	0.004751424	1
22	6538	0.004751424	0
22	6601	0.0047519872	1
22	6601	0.0047519872	0
22	6674	0.005001184	1
22	6674	0.005001184	0
22	6725	0.005002552	1
22	6725	0.005002552	0
22	6796	0.005003088	1
22	6796	0.005003088	0
22	6854	0.005003624	1
22	6854	0.005003624	0
22	6917	0.0050041872	1
22	6917	0.0050041872	0
22	6976	0.0050055824	1
22	6976	0.0050055824	0
22	7064	0.005250352	1
22	7064	0.005250352	0
22	7122	0.005250888	1
22	7122	0.005250888	0
22	7180	0.005251424	1
22	7180	0.005251424	0
22	7243	0.0052519872	1
22	7243	0.0052519872	0
22	7318	0.005500352	1
22	7318	0.005500352	0
22	7376	0.005500888	1
22	7376	0.005500888	0
22	7434	0.005501424	1
22	7434	0.005501424	0
22	7497	0.0055019872	1
22	7497	0.0055019872	0
22	7663	0.0055513408	1
22	7663	0.0055513408	0
22	7677	0.005552576	1
22	7677	0.005552576	0
22	7696	0.0055538112	1
22	7696	0.0055538112	0
22	7728	0.0055550464	1
22	7728	0.0055550464	0
22	7760	0.0055562816	1
22	7760	0.0055562816	0
22	7792	0.0055575168	1
22	7792	0.0055575168	0
22	7824	0.005558752	1
22	7824	0.005558752	0
22	7856	0.0055599872	1
22	7856	0.0055599872	0
22	7888	0.0055612224	1
22	7888	0.0055612224	0
22	7921	0.0055624576	1
22	7921	0.0055624576	0
22	7953	0.0055636928	1
22	7953	0.0055636928	0
22	7985	0.005564928	1
22	7985	0.005564928	0
22	8017	0.0055661632	1
22	8017	0.0055661632	0
22	8049	0.0055673984	1
22	8049	0.0055673984	0
22	8081	0.0055686336	1
22	8081	0.0055686336	0
22	8113	0.0055698688	1
22	8113	0.0055698688	0
22	8145	0.005571104	1
22	8145	0.005571104	0
22	8177	0.0055723392	1
22	8177	0.0055723392	0
22	8209	0.0055735744	1
22	8209	0.0055735744	0
22	8241	0.0055748096	1
22	8241	0.0055748096	0
22	8273	0.0055760448	1
22	8273	0.0055760448	0
22	8305	0.00557728	1
22	8305	0.00557728	0
22	8337	0.0055785152	1
22	8337	0.0055785152	0
22	8369	0.0055797504	1
22	8369	0.0055797504	0
22	8401	0.0055809856	1
22	8401	0.0055809856	0
22	8433	0.0055822208	1
22	8433	0.0055822208	0
22	8465	0.005583456	1
22	8465	0.005583456	0
22	8497	0.0055846912	1
22	8497	0.0055846912	0
22	8529	0.0055859264	1
22	8529	0.0055859264	0
22	8561	0.0055871616	1
22	8561	0.0055871616	0
22	8593	0.0055883968	1
22	8593	0.0055883968	0
22	8625	0.005589632	1
22	8625	0.005589632	0
22	8657	0.0055908672	1
22	8657	0.0055908672	0
22	8689	0.0055921024	1
22	8689	0.0055921024	0
22	8721	0.0055933376	1
22	8721	0.0055933376	0
22	8753	0.0055945728	1
22	8753	0.0055945728	0
22	8785	0.005595808	1
22	8785	0.005595808	0
22	8817	0.0055970432	1
22	8817	0.0055970432	0
22	8849	0.0055982784	1
22	8849	0.0055982784	0
22	8881	0.0055995136	1
22	8881	0.0055995136	0
23	558	0.0002504416	4.416e-07
23	616	0.0002509776	5.36e-07
23	674	0.0002515136	5.36e-07
23	737	0.0002520768	5.632e-07
23	812	0.0005004416	4.416e-07
23	870	0.0005009776	5.36e-07
23	928	0.0005015136	5.36e-07
23	991	0.0005020768	5.632e-07
23	1060	0.0006266896	1.6896e-06
23	1120	0.0006288896	2.2e-06
23	1200	0.0007504416	4.416e-07
23	1258	0.0007509776	5.36e-07
23	1316	0.0007515136	5.36e-07
23	1379	0.0007520768	5.632e-07
23	1454	0.0010004416	4.416e-07
23	1512	0.0010009776	5.36e-07
23	1570	0.0010015136	5.36e-07
23	1633	0.0010020768	5.632e-07
23	1706	0.0012516896	1.6896e-06
23	1757	0.0012526416	9.52e-07
23	1828	0.0012531776	5.36e-07
23	1886	0.0012537136	5.36e-07
23	1949	0.0012542768	5.632e-07
23	2008	0.001256088	1.8112e-06
23	2079	0.0014022464	2.2464e-06
23	2136	0.0014055632	3.3168e-06
23	2216	0.0015004416	4.416e-07
23	2274	0.0015009776	5.36e-07
23	2332	0.0015015136	5.36e-07
23	2395	0.0015020768	5.632e-07
23	2470	0.0017504416	4.416e-07
23	2528	0.0017509776	5.36e-07
23	2586	0.0017515136	5.36e-07
23	2649	0.0017520768	5.632e-07
23	2718	0.0018766896	1.6896e-06
23	2778	0.0018788896	2.2e-06
23	2858	0.0020004416	4.416e-07
23	2916	0.0020009776	5.36e-07
23	2974	0.0020015136	5.36e-07
23	3037	0.0020020768	5.632e-07
23	3112	0.0022504416	4.416e-07
23	3170	0.0022509776	5.36e-07
23	3228	0.0022515136	5.36e-07
23	3291	0.0022520768	5.632e-07
23	3364	0.0025016896	1.6896e-06
23	3415	0.0025026416	9.52e-07
23	3486	0.0025031776	5.36e-07
23	3544	0.0025037136	5.36e-07
23	3607	0.0025042768	5.632e-07
23	3666	0.002506088	1.8112e-06
23	3754	0.0027504416	4.416e-07
23	3812	0.0027509776	5.36e-07
23	3870	0.0027515136	5.36e-07
23	3933	0.0027520768	5.632e-07
23	3983	0.0028022464	2.2464e-06
23	4040	0.0028055632	3.3168e-06
23	4128	0.0030004416	4.416e-07
23	4186	0.0030009776	5.36e-07
23	4244	0.0030015136	5.36e-07
23	4307	0.0030020768	5.632e-07
23	4376	0.0031266896	1.6896e-06
23	4436	0.0031288896	2.2e-06
23	4516	0.0032504416	4.416e-07
23	4574	0.0032509776	5.36e-07
23	4632	0.0032515136	5.36e-07
23	4695	0.0032520768	5.632e-07
23	4770	0.0035004416	4.416e-07
23	4828	0.0035009776	5.36e-07
23	4886	0.0035015136	5.36e-07
23	4949	0.0035020768	5.632e-07
23	5022	0.0037516896	1.6896e-06
23	5073	0.0037526416	9.52e-07
23	5144	0.0037531776	5.36e-07
23	5202	0.0037537136	5.36e-07
23	5265	0.0037542768	5.632e-07
23	5324	0.003756088	1.8112e-06
23	5412	0.0040004416	4.416e-07
23	5470	0.0040009776	5.36e-07
23	5528	0.0040015136	5.36e-07
23	5591	0.0040020768	5.632e-07
23	5649	0.0042022464	2.2464e-06
23	5706	0.0042055632	3.3168e-06
23	5782	0.0042504416	4.416e-07
23	5840	0.0042509776	5.36e-07
23	5898	0.0042515136	5.36e-07
23	5961	0.0042520768	5.632e-07
23	6034	0.0043766896	1.6896e-06
23	6094	0.0043788896	2.2e-06
23	6174	0.0045004416	4.416e-07
23	6232	0.0045009776	5.36e-07
23	6290	0.0045015136	5.36e-07
23	6353	0.0045020768	5.632e-07
23	6428	0.0047504416	4.416e-07
23	6486	0.0047509776	5.36e-07
23	6544	0.0047515136	5.36e-07
23	6607	0.0047520768	5.632e-07
23	6680	0.0050016896	1.6896e-06
23	6731	0.0050026416	9.52e-07
23	6802	0.0050031776	5.36e-07
23	6860	0.0050037136	5.36e-07
23	6923	0.0050042768	5.632e-07
23	6982	0.005006088	1.8112e-06
23	7070	0.0052504416	4.416e-07
23	7128	0.0052509776	5.36e-07
23	7186	0.0052515136	5.36e-07
23	7249	0.0052520768	5.632e-07
23	7324	0.0055004416	4.416e-07
23	7382	0.0055009776	5.36e-07
23	7440	0.0055015136	5.36e-07
23	7503	0.0055020768	5.632e-07
23	7669	0.0055525664	2.5664e-06
23	7688	0.0055538016	3.8016e-06
23	7720	0.0055550368	5.0368e-06
23	7752	0.005556272	6.272e-06
23	7784	0.0055575072	7.5072e-06
23	7816	0.0055587424	8.7424e-06
23	7848	0.0055599776	9.9776e-06
23	7880	0.0055612128	1.12128e-05
23	7913	0.005562448	1.2448e-05
23	7945	0.0055636832	1.36832e-05
23	7977	0.0055649184	1.49184e-05
23	8009	0.0055661536	1.61536e-05
23	8041	0.0055673888	1.73888e-05
23	8073	0.005568624	1.8624e-05
23	8105	0.0055698592	1.98592e-05
23	8137	0.0055710944	2.10944e-05
23	8169	0.0055723296	2.23296e-05
23	8201	0.0055735648	2.35648e-05
23	8233	0.0055748	2.48e-05
23	8265	0.0055760352	2.60352e-05
23	8297	0.0055772704	2.72704e-05
23	8329	0.0055785056	2.85056e-05
23	8361	0.0055797408	2.97408e-05
23	8393	0.005580976	3.0976e-05
23	8425	0.0055822112	3.22112e-05
23	8457	0.0055834464	3.34464e-05
23	8489	0.0055846816	3.46816e-05
23	8521	0.0055859168	3.59168e-05
23	8553	0.005587152	3.7152e-05
23	8585	0.0055883872	3.83872e-05
23	8617	0.0055896224	3.96224e-05
23	8649	0.0055908576	4.08576e-05
23	8681	0.0055920928	4.20928e-05
23	8713	0.005593328	4.3328e-05
23	8745	0.0055945632	4.45632e-05
23	8777	0.0055957984	4.57984e-05
23	8809	0.0055970336	4.70336e-05
23	8841	0.0055982688	4.82688e-05
23	8873	0.005599504	4.9504e-05
24	569	0.0002505264	1
24	569	0.0002505264	0
24	823	0.0005005264	1
24	823	0.0005005264	0
24	1211	0.0007505264	1
24	1211	0.0007505264	0
24	1465	0.0010005264	1
24	1465	0.0010005264	0
24	1781	0.0012527264	1
24	1781	0.0012527264	0
24	2227	0.0015005264	1
24	2227	0.0015005264	0
24	2481	0.0017505264	1
24	2481	0.0017505264	0
24	2869	0.0020005264	1
24	2869	0.0020005264	0
24	3123	0.0022505264	1
24	3123	0.0022505264	0
24	3439	0.0025027264	1
24	3439	0.0025027264	0
24	3765	0.0027505264	1
24	3765	0.0027505264	0
24	4139	0.0030005264	1
24	4139	0.0030005264	0
24	4527	0.0032505264	1
24	4527	0.0032505264	0
24	4781	0.0035005264	1
24	4781	0.0035005264	0
24	5097	0.0037527264	1
24	5097	0.0037527264	0
24	5423	0.0040005264	1
24	5423	0.0040005264	0
24	5793	0.0042505264	1
24	5793	0.0042505264	0
24	6185	0.0045005264	1
24	6185	0.0045005264	0
24	6439	0.0047505264	1
24	6439	0.0047505264	0
24	6755	0.0050027264	1
24	6755	0.0050027264	0
24	7081	0.0052505264	1
24	7081	0.0052505264	0
24	7335	0.0055005264	1
24	7335	0.0055005264	0
25	581	0.0002506112	0
25	835	0.0005006112	0
25	1223	0.0007506112	0
25	1477	0.0010006112	0
25	1793	0.0012528112	0
25	2239	0.0015006112	0
25	2493	0.0017506112	0
25	2881	0.0020006112	0
25	3135	0.0022506112	0
25	3451	0.0025028112	0
25	3777	0.0027506112	0
25	4151	0.0030006112	0
25	4539	0.0032506112	0
25	4793	0.0035006112	0
25	5109	0.0037528112	0
25	5435	0.0040006112	0
25	5805	0.0042506112	0
25	6197	0.0045006112	0
25	6451	0.0047506112	0
25	6767	0.0050028112	0
25	7093	0.0052506112	0
25	7347	0.0055006112	0
26	581	0.0002506112	0.0001506112
26	835	0.0005006112	0.0001506112
26	1223	0.0007506112	0.0001506112
26	1477	0.0010006112	0.0001506112
26	1793	0.0012528112	0.0001528112
26	2239	0.0015006112	0.0001506112
26	2493	0.0017506112	0.0001506112
26	2881	0.0020006112	0.0001506112
26	3135	0.0022506112	0.0001506112
26	3451	0.0025028112	0.0001528112
26	3777	0.0027506112	0.0001506112
26	4151	0.0030006112	0.0001506112
26	4539	0.0032506112	0.0001506112
26	4793	0.0035006112	0.0001506112
26	5109	0.0037528112	0.0001528112
26	5435	0.0040006112	0.0001506112
26	5805	0.0042506112	0.0001506112
26	6197	0.0045006112	0.0001506112
26	6451	0.0047506112	0.0001506112
26	6767	0.0050028112	0.0001528112
26	7093	0.0052506112	0.0001506112
26	7347	0.0055006112	0.0001506112
27	581	0.0002506112	2553756.5759232
27	835	0.0005006112	2556874.4766398
27	1223	0.0007506112	2557915.4694201
27	1477	0.0010006112	2558436.2837434
27	1793	0.0012528112	2554255.5813677
27	2239	0.0015006112	2558957.3101947
27	2493	0.0017506112	2559106.2138755
27	2881	0.0020006112	2559217.9030088
27	3135	0.0022506112	2559304.7790751
27	3451	0.0025028112	2557124.5645696
27	3777	0.0027506112	2559431.1547921
27	4151	0.0030006112	2559478.5489036
27	4539	0.0032506112	2559518.6529844
27	4793	0.0035006112	2559553.0289111
27	5109	0.0037528112	2558082.3250581
27	5435	0.0040006112	2559608.8917613
27	5805	0.0042506112	2559631.8948202
27	6197	0.0045006112	2559652.3423307
27	6451	0.0047506112	2559670.6377487
27	6767	0.0050028112	2558561.4743966
27	7093	0.0052506112	2559702.0019307
27	7347	0.0055006112	2559715.5457924
28	581	0.0002506112	0.0001506112
28	835	0.0005006112	0.0001506112
28	1223	0.0007506112	0.0001506112
28	1477	0.0010006112	0.0001506112
28	1793	0.0012528112	0.0001528112
28	2239	0.0015006112	0.0001506112
28	2493	0.0017506112	0.0001506112
28	2881	0.0020006112	0.0001506112
28	3135	0.0022506112	0.0001506112
28	3451	0.0025028112	0.0001528112
28	3777	0.0027506112	0.0001506112
28	4151	0.0030006112	0.0001506112
28	4539	0.0032506112	0.0001506112
28	4793	0.0035006112	0.0001506112
28	5109	0.0037528112	0.0001528112
28	5435	0.0040006112	0.0001506112
28	5805	0.0042506112	0.0001506112
28	6197	0.0045006112	0.0001506112
28	6451	0.0047506112	0.0001506112
28	6767	0.0050028112	0.0001528112
28	7093	0.0052506112	0.0001506112
28	7347	0.0055006112	0.0001506112
29	627	0.0002510624	1
29	627	0.0002510624	0
29	881	0.0005010624	1
29	881	0.0005010624	0
29	1269	0.0007510624	1
29	1269	0.0007510624	0
29	1523	0.0010010624	1
29	1523	0.0010010624	0
29	1839	0.0012532624	1
29	1839	0.0012532624	0
29	2285	0.0015010624	1
29	2285	0.0015010624	0
29	2539	0.0017510624	1
29	2539	0.0017510624	0
29	2927	0.0020010624	1
29	2927	0.0020010624	0
29	3181	0.0022510624	1
[...]
35	4665	0.003251768	0
35	4919	0.003501768	0
35	5235	0.003753968	0
35	5561	0.004001768	0
35	5931	0.004251768	0
35	6323	0.004501768	0
35	6577	0.004751768	0
35	6893	0.005003968	0
35	7219	0.005251768	0
35	7473	0.005501768	0
36	707	0.000251768	0.000151768
36	961	0.000501768	0.000151768
36	1349	0.000751768	0.000151768
36	1603	0.001001768	0.000151768
36	1919	0.001253968	0.000153968
36	2365	0.001501768	0.000151768
36	2619	0.001751768	0.000151768
36	3007	0.002001768	0.000151768
36	3261	0.002251768	0.000151768
36	3577	0.002503968	0.000153968
36	3903	0.002751768	0.000151768
36	4277	0.003001768	0.000151768
36	4665	0.003251768	0.000151768
36	4919	0.003501768	0.000151768
36	5235	0.003753968	0.000153968
36	5561	0.004001768	0.000151768
36	5931	0.004251768	0.000151768
36	6323	0.004501768	0.000151768
36	6577	0.004751768	0.000151768
36	6893	0.005003968	0.000153968
36	7219	0.005251768	0.000151768
36	7473	0.005501768	0.000151768
37	707	0.000251768	2542022.8146548
37	961	0.000501768	2550979.7356547
37	1349	0.000751768	2553979.4191825
37	1603	0.001001768	2555481.9079867
37	1919	0.001253968	2551899.2510176
37	2365	0.001501768	2556986.1656394
37	2619	0.001751768	2557416.278868
37	3007	0.002001768	2557738.9587605
37	3261	0.002251768	2557989.9883114
37	3577	0.002503968	2555943.2069419
37	3903	0.002751768	2558355.2101776
37	4277	0.003001768	2558492.1952663
37	4665	0.003251768	2558608.1171843
37	4919	0.003501768	2558707.4871893
37	5235	0.003753968	2557294.0419311
37	5561	0.004001768	2558868.9799109
37	5931	0.004251768	2558935.4828391
37	6323	0.004501768	2558994.5994551
37	6577	0.004751768	2559047.4955848
37	6893	0.005003968	2557969.995012
37	7219	0.005251768	2559138.179752
37	7473	0.005501768	2559177.3408112
38	707	0.000251768	0.000151768
38	961	0.000501768	0.000151768
38	1349	0.000751768	0.000151768
38	1603	0.001001768	0.000151768
38	1919	0.001253968	0.000153968
38	2365	0.001501768	0.000151768
38	2619	0.001751768	0.000151768
38	3007	0.002001768	0.000151768
38	3261	0.002251768	0.000151768
38	3577	0.002503968	0.000153968
38	3903	0.002751768	0.000151768
38	4277	0.003001768	0.000151768
38	4665	0.003251768	0.000151768
38	4919	0.003501768	0.000151768
38	5235	0.003753968	0.000153968
38	5561	0.004001768	0.000151768
38	5931	0.004251768	0.000151768
38	6323	0.004501768	0.000151768
38	6577	0.004751768	0.000151768
38	6893	0.005003968	0.000153968
38	7219	0.005251768	0.000151768
38	7473	0.005501768	0.000151768
39	750	0.0002522464	1
39	750	0.0002522464	0
39	1004	0.0005022464	1
39	1004	0.0005022464	0
39	1392	0.0007522464	1
39	1392	0.0007522464	0
39	1646	0.0010022464	1
39	1646	0.0010022464	0
39	1970	0.0012544464	1
39	1970	0.0012544464	0
39	2408	0.0015022464	1
39	2408	0.0015022464	0
39	2662	0.0017522464	1
39	2662	0.0017522464	0
39	3050	0.0020022464	1
39	3050	0.0020022464	0
39	3304	0.0022522464	1
39	3304	0.0022522464	0
39	3628	0.0025044464	1
39	3628	0.0025044464	0
39	3946	0.0027522464	1
39	3946	0.0027522464	0
39	4320	0.0030022464	1
39	4320	0.0030022464	0
39	4708	0.0032522464	1
39	4708	0.0032522464	0
39	4962	0.0035022464	1
39	4962	0.0035022464	0
39	5286	0.0037544464	1
39	5286	0.0037544464	0
39	5604	0.0040022464	1
39	5604	0.0040022464	0
39	5974	0.0042522464	1
39	5974	0.0042522464	0
39	6366	0.0045022464	1
39	6366	0.0045022464	0
39	6620	0.0047522464	1
39	6620	0.0047522464	0
39	6944	0.0050044464	1
39	6944	0.0050044464	0
39	7262	0.0052522464	1
39	7262	0.0052522464	0
39	7516	0.0055022464	1
39	7516	0.0055022464	0
40	757	0.0002523312	0
40	1011	0.0005023312	0
40	1399	0.0007523312	0
40	1653	0.0010023312	0
40	1982	0.0012545312	0
40	2415	0.0015023312	0
40	2669	0.0017523312	0
40	3057	0.0020023312	0
40	3311	0.0022523312	0
40	3640	0.0025045312	0
40	3953	0.0027523312	0
40	4327	0.0030023312	0
40	4715	0.0032523312	0
40	4969	0.0035023312	0
40	5298	0.0037545312	0
40	5611	0.0040023312	0
40	5981	0.0042523312	0
40	6373	0.0045023312	0
40	6627	0.0047523312	0
40	6956	0.0050045312	0
40	7269	0.0052523312	0
40	7523	0.0055023312	0
41	757	0.0002523312	0.0001523312
41	1011	0.0005023312	0.0001523312
41	1399	0.0007523312	0.0001523312
41	1653	0.0010023312	0.0001523312
41	1982	0.0012545312	0.0001545312
41	2415	0.0015023312	0.0001523312
41	2669	0.0017523312	0.0001523312
41	3057	0.0020023312	0.0001523312
41	3311	0.0022523312	0.0001523312
41	3640	0.0025045312	0.0001545312
41	3953	0.0027523312	0.0001523312
41	4327	0.0030023312	0.0001523312
41	4715	0.0032523312	0.0001523312
41	4969	0.0035023312	0.0001523312
41	5298	0.0037545312	0.0001545312
41	5611	0.0040023312	0.0001523312
41	5981	0.0042523312	0.0001523312
41	6373	0.0045023312	0.0001523312
41	6627	0.0047523312	0.0001523312
41	6956	0.0050045312	0.0001545312
41	7269	0.0052523312	0.0001523312
41	7523	0.0055023312	0.0001523312
42	757	0.0002523312	2536349.0523566
42	1011	0.0005023312	2548119.646958
42	1399	0.0007523312	2552067.4936783
42	1653	0.0010023312	2554046.0079463
42	1982	0.0012545312	2550753.6201571
42	2415	0.0015023312	2556027.5923179
42	2669	0.0017523312	2556594.324178
42	3057	0.0020023312	2557019.5380265
42	3311	0.0022523312	2557350.3577094
42	3640	0.0025045312	2555368.4457994
42	3953	0.0027523312	2557831.7028125
42	4327	0.0030023312	2558012.2539445
42	4715	0.0032523312	2558165.0478893
42	4969	0.0035023312	2558296.0286566
42	5298	0.0037545312	2556910.4339844
42	5611	0.0040023312	2558508.9010125
42	5981	0.0042523312	2558596.5646326
42	6373	0.0045023312	2558674.4928938
42	6627	0.0047523312	2558744.222204
42	6956	0.0050045312	2557682.12615
42	7269	0.0052523312	2558863.7670069
42	7523	0.0055023312	2558915.3920796
43	757	0.0002523312	0.0001523312
43	1011	0.0005023312	0.0001523312
43	1399	0.0007523312	0.0001523312
43	1653	0.0010023312	0.0001523312
43	1982	0.0012545312	0.0001545312
43	2415	0.0015023312	0.0001523312
43	2669	0.0017523312	0.0001523312
43	3057	0.0020023312	0.0001523312
43	3311	0.0022523312	0.0001523312
43	3640	0.0025045312	0.0001545312
43	3953	0.0027523312	0.0001523312
43	4327	0.0030023312	0.0001523312
43	4715	0.0032523312	0.0001523312
43	4969	0.0035023312	0.0001523312
43	5298	0.0037545312	0.0001545312
43	5611	0.0040023312	0.0001523312
43	5981	0.0042523312	0.0001523312
43	6373	0.0045023312	0.0001523312
43	6627	0.0047523312	0.0001523312
43	6956	0.0050045312	0.0001545312
43	7269	0.0052523312	0.0001523312
43	7523	0.0055023312	0.0001523312
44	1034	0.0006251152	1
44	1034	0.0006251152	0
44	1081	0.0006273152	1
44	1081	0.0006273152	0
44	1680	0.0012501152	1
44	1680	0.0012501152	0
44	1975	0.0012545136	1
44	1975	0.0012545136	0
44	2692	0.0018751152	1
44	2692	0.0018751152	0
44	2739	0.0018773152	1
44	2739	0.0018773152	0
44	3338	0.0025001152	1
44	3338	0.0025001152	0
44	3633	0.0025045136	1
44	3633	0.0025045136	0
44	4350	0.0031251152	1
44	4350	0.0031251152	0
44	4397	0.0031273152	1
44	4397	0.0031273152	0
44	4996	0.0037501152	1
44	4996	0.0037501152	0
44	5291	0.0037545136	1
44	5291	0.0037545136	0
44	6008	0.0043751152	1
44	6008	0.0043751152	0
44	6055	0.0043773152	1
44	6055	0.0043773152	0
44	6654	0.0050001152	1
44	6654	0.0050001152	0
44	6949	0.0050045136	1
44	6949	0.0050045136	0
45	1044	0.0006251728	1
45	1044	0.0006251728	0
45	1091	0.0006273728	1
45	1091	0.0006273728	0
45	1690	0.0012501728	1
45	1690	0.0012501728	0
45	1992	0.0012545712	1
45	1992	0.0012545712	0
45	2702	0.0018751728	1
45	2702	0.0018751728	0
45	2749	0.0018773728	1
45	2749	0.0018773728	0
45	3348	0.0025001728	1
45	3348	0.0025001728	0
45	3650	0.0025045712	1
45	3650	0.0025045712	0
45	4360	0.0031251728	1
45	4360	0.0031251728	0
45	4407	0.0031273728	1
45	4407	0.0031273728	0
45	5006	0.0037501728	1
45	5006	0.0037501728	0
45	5308	0.0037545712	1
45	5308	0.0037545712	0
45	6018	0.0043751728	1
45	6018	0.0043751728	0
45	6065	0.0043773728	1
45	6065	0.0043773728	0
45	6664	0.0050001728	1
45	6664	0.0050001728	0
45	6966	0.0050045712	1
45	6966	0.0050045712	0
46	1071	0.0006271904	1
46	1071	0.0006271904	0
46	1717	0.0012521904	1
46	1717	0.0012521904	0
46	2729	0.0018771904	1
46	2729	0.0018771904	0
46	3375	0.0025021904	1
46	3375	0.0025021904	0
46	4387	0.0031271904	1
46	4387	0.0031271904	0
46	5033	0.0037521904	1
46	5033	0.0037521904	0
46	6045	0.0043771904	1
46	6045	0.0043771904	0
46	6691	0.0050021904	1
46	6691	0.0050021904	0
46	7682	0.0055537872	1
46	7682	0.0055537872	0
46	7714	0.0055550224	1
46	7714	0.0055550224	0
46	7746	0.0055562576	1
46	7746	0.0055562576	0
46	7778	0.0055574928	1
46	7778	0.0055574928	0
46	7810	0.005558728	1
46	7810	0.005558728	0
46	7842	0.0055599632	1
46	7842	0.0055599632	0
46	7874	0.0055611984	1
46	7874	0.0055611984	0
46	7907	0.0055624336	1
46	7907	0.0055624336	0
46	7939	0.0055636688	1
46	7939	0.0055636688	0
46	7971	0.005564904	1
46	7971	0.005564904	0
46	8003	0.0055661392	1
46	8003	0.0055661392	0
46	8035	0.0055673744	1
46	8035	0.0055673744	0
46	8067	0.0055686096	1
46	8067	0.0055686096	0
46	8099	0.0055698448	1
46	8099	0.0055698448	0
46	8131	0.00557108	1
46	8131	0.00557108	0
46	8163	0.0055723152	1
46	8163	0.0055723152	0
46	8195	0.0055735504	1
46	8195	0.0055735504	0
46	8227	0.0055747856	1
46	8227	0.0055747856	0
46	8259	0.0055760208	1
46	8259	0.0055760208	0
46	8291	0.005577256	1
46	8291	0.005577256	0
46	8323	0.0055784912	1
46	8323	0.0055784912	0
46	8355	0.0055797264	1
46	8355	0.0055797264	0
46	8387	0.0055809616	1
46	8387	0.0055809616	0
46	8419	0.0055821968	1
46	8419	0.0055821968	0
46	8451	0.005583432	1
46	8451	0.005583432	0
46	8483	0.0055846672	1
46	8483	0.0055846672	0
46	8515	0.0055859024	1
46	8515	0.0055859024	0
46	8547	0.0055871376	1
46	8547	0.0055871376	0
46	8579	0.0055883728	1
46	8579	0.0055883728	0
46	8611	0.005589608	1
46	8611	0.005589608	0
46	8643	0.0055908432	1
46	8643	0.0055908432	0
46	8675	0.0055920784	1
46	8675	0.0055920784	0
46	8707	0.0055933136	1
46	8707	0.0055933136	0
46	8739	0.0055945488	1
46	8739	0.0055945488	0
46	8771	0.005595784	1
46	8771	0.005595784	0
46	8803	0.0055970192	1
46	8803	0.0055970192	0
46	8835	0.0055982544	1
46	8835	0.0055982544	0
46	8867	0.0055994896	1
46	8867	0.0055994896	0
46	8912	0.0056007248	1
46	8912	0.0056007248	0
47	1103	0.0006276912	0
47	1775	0.0012526912	0
47	2761	0.0018776912	0
47	3433	0.0025026912	0
47	4419	0.0031276912	0
47	5091	0.0037526912	0
47	6077	0.0043776912	0
47	6749	0.0050026912	0
48	1103	0.0006276912	0.0005276912
48	1775	0.0012526912	0.0005276912
48	2761	0.0018776912	0.0005276912
48	3433	0.0025026912	0.0005276912
48	4419	0.0031276912	0.0005276912
48	5091	0.0037526912	0.0005276912
48	6077	0.0043776912	0.0005276912
48	6749	0.0050026912	0.0005276912
49	1103	0.0006276912	7647072.3183629
49	1775	0.0012526912	7663500.7893406
49	2761	0.0018776912	7668992.6437318
49	3433	0.0025026912	7671741.5236846
49	4419	0.0031276912	7673391.797758
49	5091	0.0037526912	7674492.3749655
49	6077	0.0043776912	7675278.6948518
49	6749	0.0050026912	7675868.5405168
50	1103	0.0006276912	0.0005276912
50	1775	0.0012526912	0.0005276912
50	2761	0.0018776912	0.0005276912
50	3433	0.0025026912	0.0005276912
50	4419	0.0031276912	0.0005276912
50	5091	0.0037526912	0.0005276912
50	6077	0.0043776912	0.0005276912
50	6749	0.0050026912	0.0005276912
51	1128	0.0006293904	1
51	1128	0.0006293904	0
51	2016	0.0012565888	1
51	2016	0.0012565888	0
51	2090	0.0014033072	1
51	2090	0.0014033072	0
51	2144	0.001406624	1
51	2144	0.001406624	0
51	2786	0.0018793904	1
51	2786	0.0018793904	0
51	3674	0.0025065888	1
51	3674	0.0025065888	0
51	3994	0.0028033072	1
51	3994	0.0028033072	0
51	4048	0.002806624	1
51	4048	0.002806624	0
51	4444	0.0031293904	1
51	4444	0.0031293904	0
51	5332	0.0037565888	1
51	5332	0.0037565888	0
51	5660	0.0042033072	1
51	5660	0.0042033072	0
51	5714	0.004206624	1
51	5714	0.004206624	0
51	6102	0.0043793904	1
51	6102	0.0043793904	0
51	6990	0.0050065888	1
51	6990	0.0050065888	0
52	1149	0.0006298912	0
52	2037	0.0012570896	0
52	2807	0.0018798912	0
52	3695	0.0025070896	0
52	4465	0.0031298912	0
52	5353	0.0037570896	0
52	6123	0.0043798912	0
52	7011	0.0050070896	0
53	1149	0.0006298912	0.0005298912
53	2037	0.0012570896	0.0005320896
53	2807	0.0018798912	0.0005298912
53	3695	0.0025070896	0.0005320896
53	4465	0.0031298912	0.0005298912
53	5353	0.0037570896	0.0005320896
53	6123	0.0043798912	0.0005298912
53	7011	0.0050070896	0.0005320896
54	1149	0.0006298912	7620363.6437531
54	2037	0.0012570896	7636687.1542013
54	2807	0.0018798912	7660017.7712412
54	3695	0.0025070896	7658282.3366185
54	4465	0.0031298912	7667998.1719492
54	5353	0.0037570896	7665507.8973895
54	6123	0.0043798912	7671423.4362717
54	7011	0.0050070896	7669125.7931554
55	1149	0.0006298912	0.0005298912
55	2037	0.0012570896	0.0005320896
55	2807	0.0018798912	0.0005298912
55	3695	0.0025070896	0.0005320896
55	4465	0.0031298912	0.0005298912
55	5353	0.0037570896	0.0005320896
55	6123	0.0043798912	0.0005298912
55	7011	0.0050070896	0.0005320896
56	2059	0.0014000576	1
56	2059	0.0014000576	0
56	3963	0.0028000576	1
56	3963	0.0028000576	0
56	5629	0.0042000576	1
56	5629	0.0042000576	0
57	2068	0.0014001152	1
57	2068	0.0014001152	0
57	3972	0.0028001152	1
57	3972	0.0028001152	0
57	5638	0.0042001152	1
57	5638	0.0042001152	0
58	2095	0.0014033744	1
58	2095	0.0014033744	0
58	3999	0.0028033744	1
58	3999	0.0028033744	0
58	5665	0.0042033744	1
58	5665	0.0042033744	0
59	2104	0.001403432	1
59	2104	0.001403432	0
59	4008	0.002803432	1
59	4008	0.002803432	0
59	5674	0.004203432	1
59	5674	0.004203432	0
60	2119	0.001404368	0
60	4023	0.002804368	0
60	5689	0.004204368	0
61	2119	0.001404368	0.001304368
61	4023	0.002804368	0.001304368
61	5689	0.004204368	0.001304368
62	2119	0.001404368	7405466.3734862
62	4023	0.002804368	7417000.9071563
62	5689	0.004204368	7420853.7406811
63	2119	0.001404368	0.001304368
63	4023	0.002804368	0.001304368
63	5689	0.004204368	0.001304368
64	2160	0.0014076848	0
64	4064	0.0028076848	0
64	5730	0.0042076848	0
65	2160	0.0014076848	0.0013076848
65	4064	0.0028076848	0.0013076848
65	5730	0.0042076848	0.0013076848
66	2160	0.0014076848	7388017.5448367
66	4064	0.0028076848	7408238.9875103
66	5730	0.0042076848	7415004.0896599
67	2160	0.0014076848	0.0013076848
67	4064	0.0028076848	0.0013076848
67	5730	0.0042076848	0.0013076848
68	7532	0.0055500576	1
68	7532	0.0055500576	0
69	7619	0.0055501152	1
69	7619	0.0055501152	0
69	7620	0.0055501152	1
69	7621	0.0055501152	2
69	7622	0.0055501152	3
69	7623	0.0055501152	4
69	7624	0.0055501152	5
69	7625	0.0055501152	6
69	7626	0.0055501152	7
69	7627	0.0055501152	8
69	7628	0.0055501152	9
69	7629	0.0055501152	10
69	7630	0.0055501152	11
69	7631	0.0055501152	12
69	7632	0.0055501152	13
69	7633	0.0055501152	14
69	7634	0.0055501152	15
69	7635	0.0055501152	16
69	7636	0.0055501152	17
69	7637	0.0055501152	18
69	7638	0.0055501152	19
69	7639	0.0055501152	20
69	7640	0.0055501152	21
69	7641	0.0055501152	22
69	7642	0.0055501152	23
69	7643	0.0055501152	24
69	7644	0.0055501152	25
69	7645	0.0055501152	26
69	7646	0.0055501152	27
69	7647	0.0055501152	28
69	7648	0.0055501152	29
69	7649	0.0055501152	30
69	7650	0.0055501152	31
69	7651	0.0055501152	32
69	7652	0.0055501152	33
69	7653	0.0055501152	34
69	7654	0.0055501152	35
69	7655	0.0055501152	36
69	7656	0.0055501152	37
69	7657	0.0055501152	38
69	7658	0.0055501152	39
69	7664	0.0055513504	38
69	7678	0.0055525856	37
69	7697	0.0055538208	36
69	7729	0.005555056	35
69	7761	0.0055562912	34
69	7793	0.0055575264	33
69	7825	0.0055587616	32
69	7857	0.0055599968	31
69	7889	0.005561232	30
69	7922	0.0055624672	29
69	7954	0.0055637024	28
69	7986	0.0055649376	27
69	8018	0.0055661728	26
69	8050	0.005567408	25
69	8082	0.0055686432	24
69	8114	0.0055698784	23
69	8146	0.0055711136	22
69	8178	0.0055723488	21
69	8210	0.005573584	20
69	8242	0.0055748192	19
69	8274	0.0055760544	18
69	8306	0.0055772896	17
69	8338	0.0055785248	16
69	8370	0.00557976	15
69	8402	0.0055809952	14
69	8434	0.0055822304	13
69	8466	0.0055834656	12
69	8498	0.0055847008	11
69	8530	0.005585936	10
69	8562	0.0055871712	9
69	8594	0.0055884064	8
69	8626	0.0055896416	7
69	8658	0.0055908768	6
69	8690	0.005592112	5
69	8722	0.0055933472	4
69	8754	0.0055945824	3
69	8786	0.0055958176	2
69	8818	0.0055970528	1
69	8850	0.005598288	0
70	7707	0.005555008	0
70	7739	0.0055562432	0
70	7771	0.0055574784	0
70	7803	0.0055587136	0
70	7835	0.0055599488	0
70	7867	0.005561184	0
70	7900	0.0055624192	0
70	7932	0.0055636544	0
70	7964	0.0055648896	0
70	7996	0.0055661248	0
70	8028	0.00556736	0
70	8060	0.0055685952	0
70	8092	0.0055698304	0
70	8124	0.0055710656	0
70	8156	0.0055723008	0
70	8188	0.005573536	0
70	8220	0.0055747712	0
70	8252	0.0055760064	0
70	8284	0.0055772416	0
70	8316	0.0055784768	0
70	8348	0.005579712	0
70	8380	0.0055809472	0
70	8412	0.0055821824	0
70	8444	0.0055834176	0
70	8476	0.0055846528	0
70	8508	0.005585888	0
70	8540	0.0055871232	0
70	8572	0.0055883584	0
70	8604	0.0055895936	0
70	8636	0.0055908288	0
70	8668	0.005592064	0
70	8700	0.0055932992	0
70	8732	0.0055945344	0
70	8764	0.0055957696	0
70	8796	0.0055970048	0
70	8828	0.00559824	0
70	8860	0.0055994752	0
70	8905	0.0056007104	0
71	7707	0.005555008	0.005455008
71	7739	0.0055562432	0.0054562432
71	7771	0.0055574784	0.0054574784
71	7803	0.0055587136	0.0054587136
71	7835	0.0055599488	0.0054599488
71	7867	0.005561184	0.005461184
71	7900	0.0055624192	0.0054624192
71	7932	0.0055636544	0.0054636544
71	7964	0.0055648896	0.0054648896
71	7996	0.0055661248	0.0054661248
71	8028	0.00556736	0.00546736
71	8060	0.0055685952	0.0054685952
71	8092	0.0055698304	0.0054698304
71	8124	0.0055710656	0.0054710656
71	8156	0.0055723008	0.0054723008
71	8188	0.005573536	0.005473536
71	8220	0.0055747712	0.0054747712
71	8252	0.0055760064	0.0054760064
71	8284	0.0055772416	0.0054772416
71	8316	0.0055784768	0.0054784768
71	8348	0.005579712	0.005479712
71	8380	0.0055809472	0.0054809472
71	8412	0.0055821824	0.0054821824
71	8444	0.0055834176	0.0054834176
71	8476	0.0055846528	0.0054846528
71	8508	0.005585888	0.005485888
71	8540	0.0055871232	0.0054871232
71	8572	0.0055883584	0.0054883584
71	8604	0.0055895936	0.0054895936
71	8636	0.0055908288	0.0054908288
71	8668	0.005592064	0.005492064
71	8700	0.0055932992	0.0054932992
71	8732	0.0055945344	0.0054945344
71	8764	0.0055957696	0.0054957696
71	8796	0.0055970048	0.0054970048
71	8828	0.00559824	0.00549824
71	8860	0.0055994752	0.0054994752
71	8905	0.0056007104	0.0055007104
72	7707	0.005555008	2160212.9105845
72	7739	0.0055562432	4319465.3538564
72	7771	0.0055574784	6477757.9702334
72	7803	0.0055587136	8635091.3995641
72	7835	0.0055599488	10791466.281128
72	7867	0.005561184	12946883.253638
72	7900	0.0055624192	15101342.955238
72	7932	0.0055636544	17254846.023506
72	7964	0.0055648896	19407393.095453
72	7996	0.0055661248	21558984.807527
72	8028	0.00556736	23709621.795609
72	8060	0.0055685952	25859304.695015
72	8092	0.0055698304	28008034.140501
72	8124	0.0055710656	30155810.766256
72	8156	0.0055723008	32302635.20591
72	8188	0.005573536	34448508.092529
72	8220	0.0055747712	36593430.058618
72	8252	0.0055760064	38737401.736124
72	8284	0.0055772416	40880423.756432
72	8316	0.0055784768	43022496.750367
72	8348	0.005579712	45163621.348199
72	8380	0.0055809472	47303798.179635
72	8412	0.0055821824	49443027.873829
72	8444	0.0055834176	51581311.059377
72	8476	0.0055846528	53718648.364317
72	8508	0.005585888	55855040.416134
72	8540	0.0055871232	57990487.841757
72	8572	0.0055883584	60124991.267561
72	8604	0.0055895936	62258551.319366
72	8636	0.0055908288	64391168.622441
72	8668	0.005592064	66522843.801502
72	8700	0.0055932992	68653577.480711
72	8732	0.0055945344	70783370.283683
72	8764	0.0055957696	72912222.833478
72	8796	0.0055970048	75040135.752608
72	8828	0.00559824	77167109.663037
72	8860	0.0055994752	79293145.186177
72	8905	0.0056007104	81418242.942895

